# generated using pymatgen
data_Zr3H26(C15O8)2
_symmetry_space_group_name_H-M   'P 1'
_cell_length_a   14.76000000
_cell_length_b   14.76800000
_cell_length_c   14.76806431
_cell_angle_alpha   119.86186561
_cell_angle_beta   119.89702194
_cell_angle_gamma   90.14300000
_symmetry_Int_Tables_number   1
_chemical_formula_structural   Zr3H26(C15O8)2
_chemical_formula_sum   'Zr12 H104 C120 O64'
_cell_volume   2281.67716339
_cell_formula_units_Z   4
loop_
 _symmetry_equiv_pos_site_id
 _symmetry_equiv_pos_as_xyz
  1  'x, y, z'
loop_
 _atom_site_type_symbol
 _atom_site_label
 _atom_site_symmetry_multiplicity
 _atom_site_fract_x
 _atom_site_fract_y
 _atom_site_fract_z
 _atom_site_occupancy
  C  C0  1  0.783790  0.546160  0.401090  1
  C  C1  1  0.176810  0.582910  0.990680  1
  C  C2  1  0.890100  0.778210  0.241860  1
  C  C3  1  0.627470  0.533630  0.735300  1
  C  C4  1  0.442480  0.206260  0.051900  1
  C  C5  1  0.994260  0.003820  0.685670  1
  C  C6  1  0.680810  0.996140  0.686700  1
  C  C7  1  0.990950  0.308670  0.996810  1
  C  C8  1  0.999730  0.306770  0.295740  1
  C  C9  1  0.291610  0.000630  0.976460  1
  C  C10  1  0.000500  0.697330  0.990500  1
  C  C11  1  0.000340  0.989590  0.290220  1
  C  C12  1  0.295920  0.993710  0.286500  1
  C  C13  1  0.686470  0.697360  0.685780  1
  C  C14  1  0.685610  0.991340  0.981320  1
  C  C15  1  0.291880  0.309530  0.289330  1
  C  C16  1  0.993410  0.701730  0.677480  1
  C  C17  1  0.999240  0.004070  0.587290  1
  C  C18  1  0.578250  0.994850  0.585780  1
  C  C19  1  0.990270  0.409980  0.997240  1
  C  C20  1  0.003850  0.411590  0.396990  1
  C  C21  1  0.392340  0.001550  0.975690  1
  C  C22  1  0.002800  0.597680  0.993400  1
  C  C23  1  0.999730  0.987810  0.390160  1
  C  C24  1  0.395170  0.990370  0.385980  1
  C  C25  1  0.585000  0.596830  0.587090  1
  C  C26  1  0.581180  0.987860  0.974520  1
  C  C27  1  0.390900  0.412510  0.389320  1
  C  C28  1  0.991630  0.600650  0.574700  1
  C  C29  1  0.947400  0.902980  0.466980  1
  C  C30  1  0.503080  0.044750  0.607730  1
  C  C31  1  0.073010  0.452030  0.993660  1
  C  C32  1  0.904930  0.436360  0.363120  1
  C  C33  1  0.461470  0.096310  0.011140  1
  C  C34  1  0.459870  0.884790  0.239900  1
  C  C35  1  0.919800  0.555370  0.996490  1
  C  C36  1  0.052470  0.088700  0.510880  1
  C  C37  1  0.469850  0.939660  0.363680  1
  C  C38  1  0.515490  0.577560  0.466740  1
  C  C39  1  0.554630  0.085750  0.009230  1
  C  C40  1  0.417940  0.486820  0.365630  1
  C  C41  1  0.895030  0.529400  0.448320  1
  C  C42  1  0.460050  0.432220  0.509970  1
  C  C43  1  0.090890  0.576580  0.608190  1
  C  C44  1  0.511130  0.892610  0.937230  1
  C  C45  1  0.082990  0.545420  0.992450  1
  C  C46  1  0.945960  0.891210  0.366300  1
  C  C47  1  0.413040  0.040840  0.505710  1
  C  C48  1  0.054090  0.100500  0.611680  1
  C  C49  1  0.559790  0.943510  0.465680  1
  C  C50  1  0.100840  0.483730  0.522790  1
  C  C51  1  0.418210  0.903260  0.939650  1
  C  C52  1  0.557790  0.522790  0.611050  1
  C  C53  1  0.910670  0.462810  0.999380  1
  C  C54  1  0.818710  0.427100  0.004780  1
  C  C55  1  0.212170  0.467340  0.568790  1
  C  C56  1  0.111310  0.213600  0.736480  1
  C  C57  1  0.529780  0.782500  0.894830  1
  C  C58  1  0.348030  0.475220  0.241070  1
  C  C59  1  0.513630  0.099530  0.731780  1
  H  H60  1  0.907350  0.830930  0.453170  1
  H  H61  1  0.436080  0.372720  0.523600  1
  H  H62  1  0.163170  0.634090  0.705970  1
  H  H63  1  0.353030  0.078020  0.518150  1
  H  H64  1  0.619740  0.906320  0.453140  1
  H  H65  1  0.362200  0.832560  0.912500  1
  H  H66  1  0.894540  0.096130  0.801620  1
  H  H67  1  0.132110  0.408690  0.991910  1
  H  H68  1  0.901240  0.090100  0.177890  1
  H  H69  1  0.275030  0.095360  0.172830  1
  H  H70  1  0.900320  0.718100  0.797340  1
  H  H71  1  0.436160  0.113760  0.717720  1
  H  H72  1  0.581360  0.179500  0.805820  1
  H  H73  1  0.533320  0.049750  0.770400  1
  H  H74  1  0.375690  0.552380  0.254120  1
  H  H75  1  0.259930  0.455330  0.203590  1
  H  H76  1  0.353660  0.407380  0.166950  1
  H  H77  1  0.456650  0.719190  0.855320  1
  H  H78  1  0.832590  0.378840  0.265400  1
  H  H79  1  0.602180  0.787190  0.975130  1
  H  H80  1  0.546620  0.755660  0.822460  1
  H  H81  1  0.132560  0.276200  0.724410  1
  H  H82  1  0.187620  0.216440  0.811510  1
  H  H83  1  0.059520  0.236420  0.772270  1
  H  H84  1  0.276520  0.542600  0.662360  1
  H  H85  1  0.234770  0.447230  0.502170  1
  H  H86  1  0.212230  0.397840  0.577810  1
  H  H87  1  0.771690  0.484730  0.009350  1
  H  H88  1  0.851180  0.424580  0.088220  1
  H  H89  1  0.761800  0.343150  0.920760  1
  H  H90  1  0.720590  0.472850  0.304810  1
  H  H91  1  0.757640  0.561470  0.463770  1
  H  H92  1  0.786050  0.618740  0.397720  1
  H  H93  1  0.597470  0.457160  0.722170  1
  H  H94  1  0.715330  0.550370  0.771580  1
  H  H95  1  0.624210  0.602970  0.810570  1
  H  H96  1  0.811930  0.773520  0.167170  1
  H  H97  1  0.536590  0.868260  0.253880  1
  H  H98  1  0.443210  0.935540  0.202520  1
  H  H99  1  0.390620  0.806020  0.164760  1
  H  H100  1  0.872440  0.714850  0.254660  1
  H  H101  1  0.941550  0.758340  0.205480  1
  H  H102  1  0.227010  0.528360  0.992250  1
  H  H103  1  0.230040  0.668430  0.073250  1
  H  H104  1  0.146330  0.582330  0.905620  1
  H  H105  1  0.367930  0.199800  0.971940  1
  H  H106  1  0.514050  0.268280  0.086750  1
  H  H107  1  0.429240  0.236230  0.127460  1
  H  H108  1  0.859970  0.597990  0.996800  1
  H  H109  1  0.092680  0.160750  0.524840  1
  H  H110  1  0.539470  0.637200  0.453250  1
  H  H111  1  0.610720  0.156550  0.036660  1
  O  O112  1  0.042010  0.149120  0.088520  1
  O  O113  1  0.040680  0.952250  0.886250  1
  O  O114  1  0.044800  0.949080  0.085400  1
  O  O115  1  0.069100  0.081040  0.802900  1
  O  O116  1  0.722290  0.920980  0.648400  1
  O  O117  1  0.914370  0.266300  0.995630  1
  O  O118  1  0.074060  0.263900  0.331250  1
  O  O119  1  0.253700  0.922840  0.977240  1
  O  O120  1  0.074470  0.737120  0.986570  1
  O  O121  1  0.922730  0.914360  0.173310  1
  O  O122  1  0.258330  0.072310  0.326120  1
  O  O123  1  0.728830  0.737060  0.802990  1
  O  O124  1  0.728020  0.916700  0.984320  1
  O  O125  1  0.254890  0.267930  0.327490  1
  O  O126  1  0.071460  0.740050  0.793450  1
  O  O127  1  0.252820  0.268040  0.172460  1
  O  O128  1  0.916590  0.742590  0.643390  1
  O  O129  1  0.727200  0.071810  0.986720  1
  O  O130  1  0.922520  0.735690  0.990270  1
  O  O131  1  0.076360  0.068440  0.328260  1
  O  O132  1  0.255440  0.918880  0.169170  1
  O  O133  1  0.915590  0.926840  0.646430  1
  O  O134  1  0.722440  0.073240  0.803610  1
  O  O135  1  0.919560  0.265300  0.179530  1
  O  O136  1  0.250820  0.077190  0.978100  1
  O  O137  1  0.724310  0.736690  0.646510  1
  O  O138  1  0.068090  0.269480  0.995390  1
  O  O139  1  0.922470  0.068680  0.854510  1
  O  O140  1  0.927600  0.064300  0.123880  1
  O  O141  1  0.194690  0.067940  0.119830  1
  O  O142  1  0.926360  0.798370  0.850780  1
  O  O143  1  0.843600  0.949450  0.889270  1
  Zr  Zr144  1  0.109530  0.121670  0.987320  1
  Zr  Zr145  1  0.871020  0.882130  0.747820  1
  Zr  Zr146  1  0.872580  0.118330  0.990710  1
  Zr  Zr147  1  0.114370  0.117530  0.226650  1
  Zr  Zr148  1  0.112790  0.881090  0.983120  1
  Zr  Zr149  1  0.876250  0.878420  0.987900  1
  C  C150  1  -4.277706  -3.169679  9.811370  1
  C  C151  1  8.672707  3.498058  5.654080  1
  C  C152  1  -6.002935  -7.888861  12.294267  1
  C  C153  1  0.517623  1.012310  8.589131  1
  C  C154  1  -4.338831  -3.281725  4.776405  1
  C  C155  1  -6.865657  6.803704  7.377279  1
  C  C156  1  1.398762  -5.152126  12.387847  1
  C  C157  1  -2.867955  6.879567  9.618147  1
  C  C158  1  -8.963099  -1.553039  9.628128  1
  C  C159  1  4.591985  10.349362  2.204952  1
  C  C160  1  11.417078  2.115881  5.201347  1
  C  C161  1  6.701118  -9.855026  7.314049  1
  C  C162  1  2.903948  -9.949583  9.517205  1
  C  C163  1  0.040693  -1.559672  10.226949  1
  C  C164  1  3.827604  -1.540857  12.404797  1
  C  C165  1  0.053752  -1.663637  4.444238  1
  C  C166  1  -3.939835  -1.712484  12.515197  1
  C  C167  1  -7.766738  5.614140  7.410041  1
  C  C168  1  1.845838  -6.353752  11.618514  1
  C  C169  1  -2.422317  5.662865  10.359979  1
  C  C170  1  5.094184  -1.596096  3.085306  1
  C  C171  1  3.300128  10.328979  2.952220  1
  C  C172  1  10.986183  3.352724  4.483854  1
  C  C173  1  -5.245842  -8.628193  14.653874  1
  C  C174  1  2.467163  -8.709483  10.227991  1
  C  C175  1  0.068405  -1.537480  8.734211  1
  C  C176  1  5.091355  -1.580900  11.611018  1
  C  C177  1  0.078954  -1.699699  5.937100  1
  C  C178  1  -5.225250  -1.732987  11.751054  1
  C  C179  1  -4.284195  -6.678551  13.648283  1
  C  C180  1  -1.068286  5.370027  4.063502  1
  C  C181  1  9.466892  5.112527  3.926370  1
  C  C182  1  -6.621327  -2.303346  9.890362  1
  C  C183  1  -5.399466  -2.447233  4.103159  1
  C  C184  1  -0.057375  -9.197949  9.916908  1
  C  C185  1  -0.904986  3.900288  10.913606  1
  C  C186  1  4.061596  3.671855  1.069150  1
  C  C187  1  1.104429  -8.366834  10.401913  1
  C  C188  1  -0.150002  -2.756594  8.074186  1
  C  C189  1  -6.653247  -2.342906  4.710085  1
  C  C190  1  -0.151217  -2.881666  6.682293  1
  C  C191  1  -5.370626  -2.397904  10.508354  1
  C  C192  1  0.306407  -0.482274  6.597738  1
  C  C193  1  6.485665  -1.038763  4.953636  1
  C  C194  1  5.262769  -0.881851  10.391743  1
  C  C195  1  9.728247  3.971568  4.688093  1
  C  C196  1  -5.174114  -7.750884  13.545109  1
  C  C197  1  -0.802031  4.186734  3.366835  1
  C  C198  1  4.950362  4.745274  1.173875  1
  C  C199  1  0.839027  -7.183058  11.097402  1
  C  C200  1  5.233432  -0.948909  4.337400  1
  C  C201  1  6.518210  -0.981112  9.787274  1
  C  C202  1  0.304207  -0.355514  7.989773  1
  C  C203  1  -1.159353  5.051499  10.164347  1
  C  C204  1  -8.611249  -6.513559  9.167511  1
  C  C205  1  4.130461  -0.196431  5.037702  1
  C  C206  1  5.765272  4.886386  2.435473  1
  C  C207  1  4.191825  -0.065209  9.714723  1
  C  C208  1  -0.367581  -4.244063  6.075624  1
  C  C209  1  0.088139  6.205485  4.552050  1
  H  H210  1  -4.197427  -5.976126  12.821934  1
  H  H211  1  0.474890  0.399738  5.983704  1
  H  H212  1  6.639814  -0.553071  5.914605  1
  H  H213  1  0.231051  3.888348  3.200454  1
  H  H214  1  -0.194183  -6.885757  11.263262  1
  H  H215  1  6.701336  -0.455861  8.852773  1
  H  H216  1  -4.206427  7.088823  7.331344  1
  H  H217  1  8.510214  5.614140  4.041270  1
  H  H218  1  -9.633507  -0.361183  7.300063  1
  H  H219  1  -1.639358  -0.485651  2.734869  1
  H  H220  1  -1.656911  -0.464303  11.958438  1
  H  H221  1  1.020702  5.864282  4.086600  1
  H  H222  1  0.194260  6.133963  5.643759  1
  H  H223  1  -0.047638  7.271666  4.332085  1
  H  H224  1  -0.280394  -5.017286  6.848510  1
  H  H225  1  0.355524  -4.456214  5.279156  1
  H  H226  1  -1.361433  -4.319805  5.612643  1
  H  H227  1  4.520337  0.221840  8.708121  1
  H  H228  1  -6.774239  -2.788194  8.928881  1
  H  H229  1  3.969576  0.846715  10.286200  1
  H  H230  1  3.244756  -0.614341  9.636487  1
  H  H231  1  5.658154  3.985800  3.052453  1
  H  H232  1  5.440156  5.757061  3.021753  1
  H  H233  1  6.830728  5.042816  2.225019  1
  H  H234  1  4.426137  0.024404  6.070973  1
  H  H235  1  3.187455  -0.757383  5.051754  1
  H  H236  1  3.909333  0.750589  4.526346  1
  H  H237  1  -7.724035  -7.153509  9.246920  1
  H  H238  1  -8.326514  -5.476805  9.392470  1
  H  H239  1  -0.435748  5.546478  8.183286  1
  H  H240  1  -4.602857  -3.446718  8.800771  1
  H  H241  1  -3.343370  -2.598355  9.735609  1
  H  H242  1  -4.024949  -4.085703  10.362813  1
  H  H243  1  0.462654  1.776247  7.804124  1
  H  H244  1  -0.226109  1.247980  9.360545  1
  H  H245  1  1.497356  1.083831  9.080659  1
  H  H246  1  -5.659027  -8.733123  11.680695  1
  H  H247  1  -0.990858  -8.829971  10.359885  1
  H  H248  1  0.054336  -10.260874  10.166371  1
  H  H249  1  -0.148285  -9.154168  8.822807  1
  H  H250  1  -5.938794  -6.970304  11.698120  1
  H  H251  1  -7.056451  -8.087986  12.523933  1
  H  H252  1  7.810290  4.174915  5.621108  1
  H  H253  1  0.538663  -8.598403  6.622740  1
  H  H254  1  8.335439  2.479155  5.420805  1
  H  H255  1  4.428442  7.892681  4.233949  1
  H  H256  1  -4.692607  -3.609419  5.761759  1
  H  H257  1  -3.397266  -2.731869  4.904364  1
  H  H258  1  0.045684  3.389992  10.787948  1
  H  H259  1  3.974059  2.971239  1.896684  1
  H  H260  1  -0.316822  -3.638606  8.689334  1
  H  H261  1  -6.834583  -2.865986  5.645928  1
  O  O262  1  0.854442  -2.150897  1.413202  1
  O  O263  1  11.104595  -2.216026  7.369847  1
  O  O264  1  4.213320  -11.836749  7.330434  1
  O  O265  1  6.304638  7.286260  1.151837  1
  O  O266  1  0.220030  -4.707562  12.136536  1
  O  O267  1  -2.079078  7.376355  8.742759  1
  O  O268  1  3.003705  -0.607707  2.508965  1
  O  O269  1  9.027837  -0.763896  8.724363  1
  O  O270  1  10.607023  1.588579  6.038233  1
  O  O271  1  -6.422487  -10.357723  13.533815  1
  O  O272  1  -0.217830  1.641165  2.451052  1
  O  O273  1  0.667202  -0.624834  10.837794  1
  O  O274  1  2.991159  -0.604451  12.166546  1
  O  O275  1  0.674478  -0.701661  3.867854  1
  O  O276  1  9.012275  -0.775956  6.026530  1
  O  O277  1  -0.619751  -2.572786  3.844477  1
  O  O278  1  -3.072402  -2.616447  12.249670  1
  O  O279  1  -0.591220  9.614613  5.932553  1
  O  O280  1  -0.221635  1.650452  12.262471  1
  O  O281  1  2.112865  1.713651  1.084869  1
  O  O282  1  2.102114  -10.462170  8.661213  1
  O  O283  1  -2.245717  -4.801999  13.600693  1
  O  O284  1  -2.084677  7.388898  5.897506  1
  O  O285  1  -9.104731  -2.454469  8.726327  1
  O  O286  1  5.455450  9.445761  2.469534  1
  O  O287  1  -0.610080  -2.507658  10.792784  1
  O  O288  1  8.763897  7.335107  2.544633  1
  O  O289  1  -4.230557  8.057795  7.337387  1
  O  O290  1  -10.541506  -0.701420  7.300543  1
  O  O291  1  -1.180040  -0.794168  1.939045  1
  O  O292  1  -1.191479  -0.787897  12.744677  1
  O  O293  1  0.841895  -2.145831  13.252167  1
  Zr  Zr294  1  7.532602  9.020494  1.759238  1
  Zr  Zr295  1  -1.002418  -3.039904  12.949316  1
  Zr  Zr296  1  -2.218963  9.101664  7.344488  1
  Zr  Zr297  1  0.970385  -0.103924  1.720293  1
  Zr  Zr298  1  10.702883  -0.189436  7.381023  1
  Zr  Zr299  1  0.960782  -0.099582  12.974307  1
