data_image0
_cell_length_a       18.9052
_cell_length_b       18.9052
_cell_length_c       17.938
_cell_angle_alpha    90
_cell_angle_beta     90
_cell_angle_gamma    90

_symmetry_space_group_name_H-M    "P 1"
_symmetry_int_tables_number       1

loop_
  _symmetry_equiv_pos_as_xyz
  'x, y, z'

loop_
  _atom_site_label
  _atom_site_occupancy
  _atom_site_fract_x
  _atom_site_fract_y
  _atom_site_fract_z
  _atom_site_thermal_displace_type
  _atom_site_B_iso_or_equiv
  _atom_site_type_symbol
  C1       1.0000 0.00390  0.57504  0.49413  Biso   1.000  C
  C2       1.0000 0.99956  0.65349  0.48916  Biso   1.000  C
  C3       1.0000 0.00441  0.34706  0.51646  Biso   1.000  C
  C4       1.0000 0.00334  0.42614  0.50998  Biso   1.000  C
  C5       1.0000 0.03391  0.56154  0.99294  Biso   1.000  C
  C6       1.0000 0.03744  0.43351  0.00886  Biso   1.000  C
  C7       1.0000 0.53752  0.06706  0.51838  Biso   1.000  C
  C8       1.0000 0.53704  0.93886  0.49792  Biso   1.000  C
  C9       1.0000 0.56204  0.03455  0.00380  Biso   1.000  C
  C10      1.0000 0.56020  0.96158  0.99837  Biso   1.000  C
  C11      1.0000 0.57564  0.00247  0.50624  Biso   1.000  C
  C12      1.0000 0.06945  0.53686  0.49409  Biso   1.000  C
  C13      1.0000 0.06709  0.46247  0.50372  Biso   1.000  C
  C14      1.0000 0.65381  0.99982  0.50188  Biso   1.000  C
  C15      1.0000 0.70037  0.79403  0.78229  Biso   1.000  C
  C16      1.0000 0.68798  0.76571  0.21740  Biso   1.000  C
  C17      1.0000 0.68490  0.21606  0.77363  Biso   1.000  C
  C18      1.0000 0.70155  0.20874  0.20424  Biso   1.000  C
  C19      1.0000 0.70123  0.70313  0.88658  Biso   1.000  C
  C20      1.0000 0.69797  0.68704  0.10819  Biso   1.000  C
  C21      1.0000 0.68316  0.30298  0.88008  Biso   1.000  C
  C22      1.0000 0.70601  0.29505  0.10005  Biso   1.000  C
  C23      1.0000 0.72701  0.81360  0.71171  Biso   1.000  C
  C24      1.0000 0.71110  0.79279  0.28457  Biso   1.000  C
  C25      1.0000 0.71481  0.19385  0.70733  Biso   1.000  C
  C26      1.0000 0.72409  0.18150  0.27374  Biso   1.000  C
  C27      1.0000 0.72847  0.73149  0.81597  Biso   1.000  C
  C28      1.0000 0.72661  0.71329  0.17866  Biso   1.000  C
  C29      1.0000 0.71165  0.27786  0.80746  Biso   1.000  C
  C30      1.0000 0.73486  0.26633  0.17151  Biso   1.000  C
  C31      1.0000 0.07214  0.49807  0.00252  Biso   1.000  C
  C32      1.0000 0.77988  0.77457  0.67685  Biso   1.000  C
  C33      1.0000 0.77453  0.76620  0.31516  Biso   1.000  C
  C34      1.0000 0.77012  0.23181  0.67235  Biso   1.000  C
  C35      1.0000 0.78344  0.21479  0.30926  Biso   1.000  C
  C36      1.0000 0.78254  0.69323  0.77930  Biso   1.000  C
  C37      1.0000 0.79135  0.68680  0.20940  Biso   1.000  C
  C38      1.0000 0.76546  0.31675  0.77413  Biso   1.000  C
  C39      1.0000 0.79348  0.29894  0.20629  Biso   1.000  C
  C40      1.0000 0.80569  0.79943  0.60296  Biso   1.000  C
  C41      1.0000 0.80227  0.79585  0.38619  Biso   1.000  C
  C42      1.0000 0.80067  0.20225  0.60377  Biso   1.000  C
  C43      1.0000 0.81030  0.19007  0.38123  Biso   1.000  C
  C44      1.0000 0.80894  0.71394  0.71085  Biso   1.000  C
  C45      1.0000 0.81340  0.71424  0.27890  Biso   1.000  C
  C46      1.0000 0.79556  0.29583  0.70546  Biso   1.000  C
  C47      1.0000 0.81694  0.27267  0.27383  Biso   1.000  C
  C48      1.0000 0.84636  0.49492  0.99104  Biso   1.000  C
  C49      1.0000 0.92403  0.49331  0.99538  Biso   1.000  C
  C50      1.0000 0.94008  0.53670  0.50128  Biso   1.000  C
  C51      1.0000 0.93869  0.46360  0.50809  Biso   1.000  C
  C52      1.0000 0.96088  0.55815  0.98975  Biso   1.000  C
  C53      1.0000 0.96283  0.42892  0.00545  Biso   1.000  C
  C54      1.0000 0.15080  0.49927  0.00508  Biso   1.000  C
  C55      1.0000 0.18971  0.70215  0.69706  Biso   1.000  C
  C56      1.0000 0.18539  0.73875  0.26039  Biso   1.000  C
  C57      1.0000 0.18298  0.27407  0.74985  Biso   1.000  C
  C58      1.0000 0.20061  0.30124  0.32298  Biso   1.000  C
  C59      1.0000 0.19649  0.79080  0.59035  Biso   1.000  C
  C60      1.0000 0.19497  0.82170  0.36704  Biso   1.000  C
  C61      1.0000 0.18694  0.18891  0.64122  Biso   1.000  C
  C62      1.0000 0.20591  0.21274  0.42503  Biso   1.000  C
  C63      1.0000 0.21904  0.67830  0.76500  Biso   1.000  C
  C64      1.0000 0.20737  0.71140  0.19279  Biso   1.000  C
  C65      1.0000 0.20888  0.29475  0.81867  Biso   1.000  C
  C66      1.0000 0.22322  0.32986  0.25416  Biso   1.000  C
  C67      1.0000 0.22388  0.75988  0.65997  Biso   1.000  C
  C68      1.0000 0.22067  0.79611  0.29494  Biso   1.000  C
  C69      1.0000 0.21107  0.21265  0.71646  Biso   1.000  C
  C70      1.0000 0.23545  0.24440  0.35551  Biso   1.000  C
  C71      1.0000 0.27926  0.70942  0.79499  Biso   1.000  C
  C72      1.0000 0.26683  0.74174  0.15739  Biso   1.000  C
  C73      1.0000 0.26195  0.25601  0.85637  Biso   1.000  C
  C74      1.0000 0.28338  0.29811  0.21893  Biso   1.000  C
  C75      1.0000 0.28526  0.79011  0.69172  Biso   1.000  C
  C76      1.0000 0.28053  0.82742  0.25858  Biso   1.000  C
  C77      1.0000 0.26246  0.17274  0.75281  Biso   1.000  C
  C78      1.0000 0.29561  0.21408  0.32157  Biso   1.000  C
  C79      1.0000 0.30761  0.68215  0.86685  Biso   1.000  C
  C80      1.0000 0.29435  0.71138  0.08599  Biso   1.000  C
  C81      1.0000 0.29033  0.28513  0.92655  Biso   1.000  C
  C82      1.0000 0.30983  0.32210  0.14650  Biso   1.000  C
  C83      1.0000 0.31334  0.76589  0.75816  Biso   1.000  C
  C84      1.0000 0.30218  0.79854  0.18944  Biso   1.000  C
  C85      1.0000 0.28886  0.19255  0.82344  Biso   1.000  C
  C86      1.0000 0.31844  0.24116  0.25424  Biso   1.000  C
  C87      1.0000 0.34685  0.00106  0.51308  Biso   1.000  C
  C88      1.0000 0.42613  0.00068  0.51153  Biso   1.000  C
  C89      1.0000 0.43368  0.03516  0.01761  Biso   1.000  C
  C90      1.0000 0.43062  0.96071  0.01117  Biso   1.000  C
  C91      1.0000 0.46263  0.06404  0.52059  Biso   1.000  C
  C92      1.0000 0.46373  0.93695  0.50021  Biso   1.000  C
  C93      1.0000 0.49769  0.07121  0.01339  Biso   1.000  C
  C94      1.0000 0.49880  0.84626  0.99255  Biso   1.000  C
  C95      1.0000 0.49594  0.92361  0.00081  Biso   1.000  C
  C96      1.0000 0.49773  0.14973  0.01733  Biso   1.000  C
  H1       1.0000 0.56716  0.89053  0.48925  Biso   1.000  H
  H2       1.0000 0.57785  0.58326  0.94543  Biso   1.000  H
  H3       1.0000 0.57828  0.41644  0.04568  Biso   1.000  H
  H4       1.0000 0.61136  0.06385  0.00058  Biso   1.000  H
  H5       1.0000 0.60872  0.93141  0.99126  Biso   1.000  H
  H6       1.0000 0.63904  0.78413  0.19221  Biso   1.000  H
  H7       1.0000 0.64243  0.18688  0.80041  Biso   1.000  H
  H8       1.0000 0.65643  0.18502  0.17607  Biso   1.000  H
  H9       1.0000 0.70631  0.86031  0.68381  Biso   1.000  H
  H10      1.0000 0.68199  0.83358  0.31411  Biso   1.000  H
  H11      1.0000 0.69678  0.14567  0.68028  Biso   1.000  H
  H12      1.0000 0.07250  0.92024  0.52668  Biso   1.000  H
  H13      1.0000 0.80250  0.64611  0.80689  Biso   1.000  H
  H14      1.0000 0.78430  0.36444  0.80167  Biso   1.000  H
  H15      1.0000 0.81867  0.34404  0.17980  Biso   1.000  H
  H16      1.0000 0.85047  0.68462  0.68267  Biso   1.000  H
  H17      1.0000 0.86218  0.69547  0.30431  Biso   1.000  H
  H18      1.0000 0.86199  0.29645  0.30197  Biso   1.000  H
  H19      1.0000 0.89111  0.56693  0.50113  Biso   1.000  H
  H20      1.0000 0.88894  0.43511  0.51225  Biso   1.000  H
  H21      1.0000 0.93120  0.08018  0.53317  Biso   1.000  H
  H22      1.0000 0.11631  0.43258  0.50509  Biso   1.000  H
  H23      1.0000 0.13997  0.71638  0.28913  Biso   1.000  H
  H24      1.0000 0.14261  0.30432  0.72086  Biso   1.000  H
  H25      1.0000 0.15411  0.32284  0.35055  Biso   1.000  H
  H26      1.0000 0.19434  0.63461  0.79473  Biso   1.000  H
  H27      1.0000 0.18046  0.66710  0.16669  Biso   1.000  H
  H28      1.0000 0.18957  0.34262  0.84538  Biso   1.000  H
  H29      1.0000 0.30976  0.83376  0.66188  Biso   1.000  H
  H30      1.0000 0.28266  0.12537  0.72572  Biso   1.000  H
  H31      1.0000 0.32191  0.16973  0.34823  Biso   1.000  H
  H32      1.0000 0.36059  0.78912  0.78237  Biso   1.000  H
  H33      1.0000 0.34792  0.82065  0.16094  Biso   1.000  H
  H34      1.0000 0.36417  0.21884  0.22602  Biso   1.000  H
  H35      1.0000 0.38509  0.06509  0.02555  Biso   1.000  H
  H36      1.0000 0.41631  0.58385  0.04104  Biso   1.000  H
  H37      1.0000 0.41655  0.40788  0.96366  Biso   1.000  H
  H38      1.0000 0.43491  0.88766  0.49337  Biso   1.000  H
  H39      1.0000 0.43267  0.11248  0.52949  Biso   1.000  H
  O1       1.0000 0.00047  0.80795  0.55375  Biso   1.000  O
  O2       1.0000 0.99012  0.80120  0.41863  Biso   1.000  O
  O3       1.0000 0.99695  0.18905  0.57565  Biso   1.000  O
  O4       1.0000 0.01520  0.20651  0.44270  Biso   1.000  O
  O5       1.0000 0.55891  0.81476  0.99700  Biso   1.000  O
  O6       1.0000 0.55638  0.18149  0.00546  Biso   1.000  O
  O7       1.0000 0.05883  0.68793  0.47847  Biso   1.000  O
  O8       1.0000 0.06154  0.31522  0.53074  Biso   1.000  O
  O9       1.0000 0.60556  0.60525  0.98496  Biso   1.000  O
  O10      1.0000 0.60353  0.39045  0.00703  Biso   1.000  O
  O11      1.0000 0.63897  0.71313  0.08429  Biso   1.000  O
  O12      1.0000 0.65173  0.73543  0.92159  Biso   1.000  O
  O13      1.0000 0.65510  0.26246  0.06871  Biso   1.000  O
  O14      1.0000 0.62676  0.27456  0.90575  Biso   1.000  O
  O15      1.0000 0.68875  0.05862  0.50314  Biso   1.000  O
  O16      1.0000 0.68478  0.93941  0.49697  Biso   1.000  O
  O17      1.0000 0.69551  0.49887  0.05975  Biso   1.000  O
  O18      1.0000 0.69458  0.49616  0.92222  Biso   1.000  O
  O19      1.0000 0.73096  0.63913  0.07204  Biso   1.000  O
  O20      1.0000 0.72861  0.64484  0.91020  Biso   1.000  O
  O21      1.0000 0.73440  0.35179  0.07507  Biso   1.000  O
  O22      1.0000 0.71661  0.35204  0.91334  Biso   1.000  O
  O23      1.0000 0.77189  0.84907  0.57171  Biso   1.000  O
  O24      1.0000 0.77194  0.85204  0.41063  Biso   1.000  O
  O25      1.0000 0.77407  0.14444  0.57856  Biso   1.000  O
  O26      1.0000 0.77792  0.14144  0.41624  Biso   1.000  O
  O27      1.0000 0.80902  0.99415  0.56512  Biso   1.000  O
  O28      1.0000 0.80244  0.99961  0.42803  Biso   1.000  O
  O29      1.0000 0.81492  0.55514  0.98808  Biso   1.000  O
  O30      1.0000 0.81222  0.43578  0.99078  Biso   1.000  O
  O31      1.0000 0.86100  0.76872  0.57595  Biso   1.000  O
  O32      1.0000 0.85410  0.76475  0.41716  Biso   1.000  O
  O33      1.0000 0.85226  0.23444  0.57173  Biso   1.000  O
  O34      1.0000 0.86753  0.21910  0.40830  Biso   1.000  O
  O35      1.0000 0.88990  0.88274  0.49321  Biso   1.000  O
  O36      1.0000 0.89844  0.10753  0.50267  Biso   1.000  O
  O37      1.0000 0.94079  0.68466  0.49680  Biso   1.000  O
  O38      1.0000 0.94420  0.31510  0.50628  Biso   1.000  O
  O39      1.0000 0.10455  0.89469  0.49374  Biso   1.000  O
  O40      1.0000 0.11032  0.11727  0.51555  Biso   1.000  O
  O41      1.0000 0.14180  0.76287  0.55966  Biso   1.000  O
  O42      1.0000 0.14044  0.78975  0.39646  Biso   1.000  O
  O43      1.0000 0.13528  0.22330  0.61122  Biso   1.000  O
  O44      1.0000 0.15134  0.24130  0.45348  Biso   1.000  O
  O45      1.0000 0.18202  0.55847  0.99382  Biso   1.000  O
  O46      1.0000 0.18318  0.44102  0.01802  Biso   1.000  O
  O47      1.0000 0.19145  0.99362  0.57519  Biso   1.000  O
  O48      1.0000 0.20094  0.01192  0.43990  Biso   1.000  O
  O49      1.0000 0.22860  0.84465  0.56272  Biso   1.000  O
  O50      1.0000 0.22499  0.87317  0.39995  Biso   1.000  O
  O51      1.0000 0.21880  0.13685  0.61185  Biso   1.000  O
  O52      1.0000 0.23716  0.15769  0.45064  Biso   1.000  O
  O53      1.0000 0.26237  0.65707  0.05958  Biso   1.000  O
  O54      1.0000 0.27751  0.62957  0.89748  Biso   1.000  O
  O55      1.0000 0.27950  0.37347  0.11297  Biso   1.000  O
  O56      1.0000 0.26194  0.34204  0.95227  Biso   1.000  O
  O57      1.0000 0.30200  0.50992  0.07128  Biso   1.000  O
  O58      1.0000 0.29934  0.48967  0.93586  Biso   1.000  O
  O59      1.0000 0.31508  0.05999  0.52446  Biso   1.000  O
  O60      1.0000 0.31464  0.94216  0.50246  Biso   1.000  O
  O61      1.0000 0.34790  0.74047  0.05602  Biso   1.000  O
  O62      1.0000 0.36176  0.71340  0.89449  Biso   1.000  O
  O63      1.0000 0.36394  0.29022  0.11800  Biso   1.000  O
  O64      1.0000 0.34226  0.25426  0.95908  Biso   1.000  O
  O65      1.0000 0.39164  0.60589  0.99936  Biso   1.000  O
  O66      1.0000 0.39183  0.39026  0.00760  Biso   1.000  O
  O67      1.0000 0.44055  0.81268  0.98090  Biso   1.000  O
  O68      1.0000 0.43923  0.18158  0.03119  Biso   1.000  O
  O69      1.0000 0.49370  0.69756  0.05901  Biso   1.000  O
  O70      1.0000 0.50638  0.69424  0.92238  Biso   1.000  O
  O71      1.0000 0.50850  0.30100  0.08194  Biso   1.000  O
  O72      1.0000 0.48662  0.29673  0.94688  Biso   1.000  O
  Ti1      1.0000 0.57198  0.70692  0.99967  Biso   1.000  Ti
  Ti2      1.0000 0.56801  0.28865  0.00077  Biso   1.000  Ti
  Ti3      1.0000 0.70695  0.56933  0.98443  Biso   1.000  Ti
  Ti4      1.0000 0.70410  0.42597  0.99701  Biso   1.000  Ti
  Ti5      1.0000 0.07014  0.79373  0.47506  Biso   1.000  Ti
  V1       1.0000 0.07334  0.19895  0.52350  Biso   1.000  V
  Ti6      1.0000 0.79896  0.06804  0.50418  Biso   1.000  Ti
  Ti7      1.0000 0.79266  0.92478  0.48956  Biso   1.000  Ti
  V2       1.0000 0.92709  0.80126  0.49561  Biso   1.000  V
  Ti8      1.0000 0.93141  0.21074  0.49319  Biso   1.000  Ti
  Ti9      1.0000 0.20663  0.07487  0.51554  Biso   1.000  Ti
  Ti10     1.0000 0.20540  0.93151  0.50090  Biso   1.000  Ti
  Ti11     1.0000 0.28956  0.57131  0.99577  Biso   1.000  Ti
  Ti12     1.0000 0.29135  0.42785  0.01155  Biso   1.000  Ti
  Ti13     1.0000 0.42922  0.70502  0.98169  Biso   1.000  Ti
  Ti14     1.0000 0.42649  0.28951  0.02913  Biso   1.000  Ti
  N1       1.0000 0.18632  0.38462  0.22359  Biso   1.000  N
  H40      1.0000 0.20480  0.40726  0.17599  Biso   1.000  H
  H41      1.0000 0.14818  0.40873  0.25388  Biso   1.000  H
  N2       1.0000 0.31743  0.88251  0.28817  Biso   1.000  N
  H42      1.0000 0.35730  0.90472  0.25878  Biso   1.000  H
  H43      1.0000 0.30041  0.90458  0.33669  Biso   1.000  H
  N3       1.0000 0.83258  0.63796  0.17424  Biso   1.000  N
  H44      1.0000 0.81426  0.61514  0.12664  Biso   1.000  H
  H45      1.0000 0.87458  0.61709  0.20136  Biso   1.000  H
  N4       1.0000 0.68790  0.12616  0.30415  Biso   1.000  N
  H46      1.0000 0.65313  0.09936  0.27188  Biso   1.000  H
  H47      1.0000 0.70745  0.10311  0.35106  Biso   1.000  H
  N5       1.0000 0.33746  0.15001  0.85822  Biso   1.000  N
  H48      1.0000 0.36340  0.17135  0.90267  Biso   1.000  H
  H49      1.0000 0.36301  0.11355  0.82681  Biso   1.000  H
  N6       1.0000 0.13144  0.66838  0.66903  Biso   1.000  N
  H50      1.0000 0.10341  0.63665  0.70360  Biso   1.000  H
  H51      1.0000 0.10628  0.69174  0.62532  Biso   1.000  H
  N7       1.0000 0.65048  0.83552  0.81589  Biso   1.000  N
  H52      1.0000 0.62655  0.81633  0.86256  Biso   1.000  H
  H53      1.0000 0.62565  0.87280  0.78500  Biso   1.000  H
  N8       1.0000 0.84609  0.33739  0.67332  Biso   1.000  N
  H54      1.0000 0.86688  0.37794  0.70288  Biso   1.000  H
  H55      1.0000 0.87196  0.31862  0.62766  Biso   1.000  H
  N9       1.0000 0.57015  0.13061  0.52971  Biso   1.000  N
  H56      1.0000 0.54067  0.17526  0.53098  Biso   1.000  H
  H57      1.0000 0.62326  0.13382  0.52113  Biso   1.000  H
  N10      1.0000 0.13399  0.56831  0.48341  Biso   1.000  N
  H58      1.0000 0.13594  0.62205  0.48542  Biso   1.000  H
  H59      1.0000 0.17775  0.54096  0.49858  Biso   1.000  H
  H60      1.0000 0.06862  0.38564  0.01629  Biso   1.000  H
  N11      1.0000 0.93134  0.36443  0.01317  Biso   1.000  N
  H61      1.0000 0.87812  0.36057  0.00601  Biso   1.000  H
  H62      1.0000 0.96159  0.32036  0.01558  Biso   1.000  H
  H63      1.0000 0.92956  0.60589  0.98242  Biso   1.000  H
  H64      1.0000 0.06210  0.61139  0.98819  Biso   1.000  H
  N12      1.0000 0.36661  0.92759  0.01807  Biso   1.000  N
  H65      1.0000 0.32214  0.95741  0.01667  Biso   1.000  H
  H66      1.0000 0.36335  0.87554  0.00402  Biso   1.000  H
