data_image0
_cell_length_a       18.9052
_cell_length_b       18.9052
_cell_length_c       17.938
_cell_angle_alpha    90
_cell_angle_beta     90
_cell_angle_gamma    90

_symmetry_space_group_name_H-M    "P 1"
_symmetry_int_tables_number       1

loop_
  _symmetry_equiv_pos_as_xyz
  'x, y, z'

loop_
  _atom_site_label
  _atom_site_occupancy
  _atom_site_fract_x
  _atom_site_fract_y
  _atom_site_fract_z
  _atom_site_thermal_displace_type
  _atom_site_B_iso_or_equiv
  _atom_site_type_symbol
  C1       1.0000 0.00605  0.57434  0.48700  Biso   1.000  C
  C2       1.0000 0.00352  0.65144  0.47989  Biso   1.000  C
  C3       1.0000 0.00156  0.35109  0.51905  Biso   1.000  C
  C4       1.0000 0.00276  0.42877  0.50978  Biso   1.000  C
  C5       1.0000 0.03339  0.55890  0.98847  Biso   1.000  C
  C6       1.0000 0.03728  0.43101  0.00729  Biso   1.000  C
  C7       1.0000 0.53777  0.06727  0.53140  Biso   1.000  C
  C8       1.0000 0.53702  0.93932  0.50589  Biso   1.000  C
  C9       1.0000 0.56203  0.03163  0.00709  Biso   1.000  C
  C10      1.0000 0.55925  0.95902  0.99879  Biso   1.000  C
  C11      1.0000 0.57491  0.00298  0.51631  Biso   1.000  C
  C12      1.0000 0.07142  0.53617  0.48952  Biso   1.000  C
  C13      1.0000 0.06760  0.46270  0.50309  Biso   1.000  C
  C14      1.0000 0.65231  0.00027  0.51025  Biso   1.000  C
  C15      1.0000 0.70167  0.79331  0.78268  Biso   1.000  C
  C16      1.0000 0.68779  0.76724  0.21002  Biso   1.000  C
  C17      1.0000 0.67793  0.21943  0.76918  Biso   1.000  C
  C18      1.0000 0.71664  0.19859  0.19777  Biso   1.000  C
  C19      1.0000 0.70394  0.70326  0.88696  Biso   1.000  C
  C20      1.0000 0.70076  0.68601  0.10435  Biso   1.000  C
  C21      1.0000 0.67789  0.29993  0.87971  Biso   1.000  C
  C22      1.0000 0.70973  0.29228  0.10069  Biso   1.000  C
  C23      1.0000 0.72771  0.81295  0.71194  Biso   1.000  C
  C24      1.0000 0.70818  0.79627  0.27714  Biso   1.000  C
  C25      1.0000 0.70737  0.19998  0.70180  Biso   1.000  C
  C26      1.0000 0.74127  0.17154  0.26656  Biso   1.000  C
  C27      1.0000 0.73155  0.73183  0.81673  Biso   1.000  C
  C28      1.0000 0.72790  0.71379  0.17505  Biso   1.000  C
  C29      1.0000 0.70557  0.27934  0.80571  Biso   1.000  C
  C30      1.0000 0.74149  0.26249  0.16963  Biso   1.000  C
  C31      1.0000 0.07140  0.49584  0.00072  Biso   1.000  C
  C32      1.0000 0.78178  0.77508  0.67775  Biso   1.000  C
  C33      1.0000 0.77034  0.77045  0.31090  Biso   1.000  C
  C34      1.0000 0.76254  0.23916  0.66853  Biso   1.000  C
  C35      1.0000 0.79184  0.21324  0.30659  Biso   1.000  C
  C36      1.0000 0.78688  0.69489  0.78088  Biso   1.000  C
  C37      1.0000 0.79117  0.68784  0.20906  Biso   1.000  C
  C38      1.0000 0.75919  0.31980  0.77399  Biso   1.000  C
  C39      1.0000 0.79380  0.30172  0.20762  Biso   1.000  C
  C40      1.0000 0.80751  0.79871  0.60372  Biso   1.000  C
  C41      1.0000 0.79510  0.80229  0.38131  Biso   1.000  C
  C42      1.0000 0.79364  0.21014  0.59965  Biso   1.000  C
  C43      1.0000 0.81633  0.19277  0.38118  Biso   1.000  C
  C44      1.0000 0.81289  0.71585  0.71240  Biso   1.000  C
  C45      1.0000 0.81074  0.71736  0.27835  Biso   1.000  C
  C46      1.0000 0.78829  0.30179  0.70397  Biso   1.000  C
  C47      1.0000 0.81814  0.27641  0.27522  Biso   1.000  C
  C48      1.0000 0.84685  0.49178  0.98674  Biso   1.000  C
  C49      1.0000 0.92431  0.48985  0.99012  Biso   1.000  C
  C50      1.0000 0.94106  0.53832  0.49474  Biso   1.000  C
  C51      1.0000 0.93834  0.46602  0.50481  Biso   1.000  C
  C52      1.0000 0.96057  0.55495  0.98400  Biso   1.000  C
  C53      1.0000 0.96301  0.42569  0.00131  Biso   1.000  C
  C54      1.0000 0.14959  0.49729  0.00576  Biso   1.000  C
  C55      1.0000 0.19301  0.69542  0.68680  Biso   1.000  C
  C56      1.0000 0.18698  0.73922  0.25459  Biso   1.000  C
  C57      1.0000 0.17619  0.26281  0.76976  Biso   1.000  C
  C58      1.0000 0.20647  0.30647  0.34187  Biso   1.000  C
  C59      1.0000 0.20194  0.78237  0.57791  Biso   1.000  C
  C60      1.0000 0.19773  0.82405  0.35911  Biso   1.000  C
  C61      1.0000 0.18352  0.17856  0.66194  Biso   1.000  C
  C62      1.0000 0.21412  0.21668  0.44246  Biso   1.000  C
  C63      1.0000 0.22191  0.67224  0.75523  Biso   1.000  C
  C64      1.0000 0.20722  0.71118  0.18671  Biso   1.000  C
  C65      1.0000 0.20168  0.28499  0.83826  Biso   1.000  C
  C66      1.0000 0.22740  0.33581  0.27272  Biso   1.000  C
  C67      1.0000 0.22955  0.75007  0.64714  Biso   1.000  C
  C68      1.0000 0.22075  0.79911  0.28561  Biso   1.000  C
  C69      1.0000 0.20623  0.20194  0.73720  Biso   1.000  C
  C70      1.0000 0.24209  0.24911  0.37276  Biso   1.000  C
  C71      1.0000 0.28399  0.70151  0.78307  Biso   1.000  C
  C72      1.0000 0.26339  0.74376  0.14790  Biso   1.000  C
  C73      1.0000 0.25575  0.24813  0.87621  Biso   1.000  C
  C74      1.0000 0.28594  0.30384  0.23497  Biso   1.000  C
  C75      1.0000 0.29313  0.77752  0.67622  Biso   1.000  C
  C76      1.0000 0.27648  0.83325  0.24533  Biso   1.000  C
  C77      1.0000 0.25857  0.16361  0.77403  Biso   1.000  C
  C78      1.0000 0.30128  0.21921  0.33668  Biso   1.000  C
  C79      1.0000 0.31122  0.67841  0.85673  Biso   1.000  C
  C80      1.0000 0.29024  0.71142  0.07778  Biso   1.000  C
  C81      1.0000 0.28466  0.27921  0.94538  Biso   1.000  C
  C82      1.0000 0.30970  0.32622  0.16047  Biso   1.000  C
  C83      1.0000 0.32084  0.75422  0.74312  Biso   1.000  C
  C84      1.0000 0.29676  0.80362  0.17615  Biso   1.000  C
  C85      1.0000 0.28422  0.18486  0.84441  Biso   1.000  C
  C86      1.0000 0.32204  0.24683  0.26881  Biso   1.000  C
  C87      1.0000 0.34884  0.00056  0.52353  Biso   1.000  C
  C88      1.0000 0.42737  0.00066  0.52274  Biso   1.000  C
  C89      1.0000 0.43370  0.03345  0.02145  Biso   1.000  C
  C90      1.0000 0.42965  0.95954  0.01135  Biso   1.000  C
  C91      1.0000 0.46321  0.06395  0.53439  Biso   1.000  C
  C92      1.0000 0.46404  0.93721  0.50850  Biso   1.000  C
  C93      1.0000 0.49816  0.06864  0.01811  Biso   1.000  C
  C94      1.0000 0.49681  0.84525  0.98688  Biso   1.000  C
  C95      1.0000 0.49442  0.92218  0.99922  Biso   1.000  C
  C96      1.0000 0.49910  0.14704  0.02310  Biso   1.000  C
  H1       1.0000 0.56743  0.89166  0.49497  Biso   1.000  H
  H2       1.0000 0.58032  0.58086  0.94572  Biso   1.000  H
  H3       1.0000 0.57713  0.41719  0.05144  Biso   1.000  H
  H4       1.0000 0.61166  0.06040  0.00467  Biso   1.000  H
  H5       1.0000 0.60727  0.92832  0.99052  Biso   1.000  H
  H6       1.0000 0.63991  0.78470  0.18201  Biso   1.000  H
  H7       1.0000 0.63560  0.18920  0.79478  Biso   1.000  H
  H8       1.0000 0.67637  0.16978  0.16690  Biso   1.000  H
  H9       1.0000 0.70545  0.85863  0.68358  Biso   1.000  H
  H10      1.0000 0.67787  0.83775  0.30410  Biso   1.000  H
  H11      1.0000 0.68923  0.15288  0.67282  Biso   1.000  H
  H12      1.0000 0.08386  0.08936  0.47245  Biso   1.000  H
  H13      1.0000 0.08186  0.90943  0.53436  Biso   1.000  H
  H14      1.0000 0.80806  0.64862  0.80907  Biso   1.000  H
  H15      1.0000 0.77853  0.36610  0.80374  Biso   1.000  H
  H16      1.0000 0.81244  0.35135  0.18434  Biso   1.000  H
  H17      1.0000 0.85550  0.68777  0.68461  Biso   1.000  H
  H18      1.0000 0.85862  0.69955  0.30629  Biso   1.000  H
  H19      1.0000 0.85750  0.30552  0.30704  Biso   1.000  H
  H20      1.0000 0.89293  0.56972  0.49253  Biso   1.000  H
  H21      1.0000 0.88848  0.43782  0.50938  Biso   1.000  H
  H22      1.0000 0.92207  0.08993  0.55170  Biso   1.000  H
  H23      1.0000 0.92489  0.92445  0.51993  Biso   1.000  H
  H24      1.0000 0.11595  0.43168  0.50703  Biso   1.000  H
  H25      1.0000 0.14439  0.71522  0.28649  Biso   1.000  H
  H26      1.0000 0.13503  0.29167  0.74045  Biso   1.000  H
  H27      1.0000 0.16084  0.32807  0.37102  Biso   1.000  H
  H28      1.0000 0.19499  0.63137  0.78721  Biso   1.000  H
  H29      1.0000 0.18202  0.66455  0.16340  Biso   1.000  H
  H30      1.0000 0.18136  0.33277  0.86430  Biso   1.000  H
  H31      1.0000 0.31933  0.81880  0.64429  Biso   1.000  H
  H32      1.0000 0.28036  0.11665  0.74762  Biso   1.000  H
  H33      1.0000 0.32849  0.17462  0.36177  Biso   1.000  H
  H34      1.0000 0.36958  0.77583  0.76547  Biso   1.000  H
  H35      1.0000 0.33989  0.82753  0.14495  Biso   1.000  H
  H36      1.0000 0.36678  0.22455  0.23886  Biso   1.000  H
  H37      1.0000 0.38559  0.06379  0.03086  Biso   1.000  H
  H38      1.0000 0.41630  0.57905  0.03808  Biso   1.000  H
  H39      1.0000 0.41209  0.40368  0.97330  Biso   1.000  H
  H40      1.0000 0.43469  0.88855  0.49955  Biso   1.000  H
  H41      1.0000 0.43295  0.11176  0.54535  Biso   1.000  H
  O1       1.0000 0.00651  0.80483  0.54649  Biso   1.000  O
  O2       1.0000 0.99550  0.79697  0.40934  Biso   1.000  O
  O3       1.0000 0.98779  0.20052  0.58530  Biso   1.000  O
  O4       1.0000 0.01535  0.20660  0.45098  Biso   1.000  O
  O5       1.0000 0.55566  0.81281  0.99343  Biso   1.000  O
  O6       1.0000 0.55864  0.17603  0.00635  Biso   1.000  O
  O7       1.0000 0.06168  0.68512  0.46857  Biso   1.000  O
  O8       1.0000 0.05889  0.31956  0.53793  Biso   1.000  O
  O9       1.0000 0.60908  0.60147  0.98530  Biso   1.000  O
  O10      1.0000 0.60199  0.39577  0.00938  Biso   1.000  O
  O11      1.0000 0.64362  0.71277  0.07850  Biso   1.000  O
  O12      1.0000 0.65470  0.73503  0.92165  Biso   1.000  O
  O13      1.0000 0.66074  0.25510  0.06894  Biso   1.000  O
  O14      1.0000 0.62034  0.26841  0.90096  Biso   1.000  O
  O15      1.0000 0.68791  0.05795  0.51227  Biso   1.000  O
  O16      1.0000 0.68034  0.93824  0.50327  Biso   1.000  O
  O17      1.0000 0.70025  0.49832  0.06009  Biso   1.000  O
  O18      1.0000 0.69471  0.49401  0.92213  Biso   1.000  O
  O19      1.0000 0.73424  0.63609  0.07130  Biso   1.000  O
  O20      1.0000 0.73156  0.64436  0.91016  Biso   1.000  O
  O21      1.0000 0.73163  0.35175  0.07788  Biso   1.000  O
  O22      1.0000 0.71020  0.34523  0.91850  Biso   1.000  O
  O23      1.0000 0.76849  0.84614  0.57153  Biso   1.000  O
  O24      1.0000 0.76197  0.85898  0.40178  Biso   1.000  O
  O25      1.0000 0.76842  0.15188  0.57551  Biso   1.000  O
  O26      1.0000 0.78106  0.14809  0.41849  Biso   1.000  O
  O27      1.0000 0.81809  0.00240  0.56855  Biso   1.000  O
  O28      1.0000 0.79858  0.01121  0.42384  Biso   1.000  O
  O29      1.0000 0.81618  0.55205  0.98369  Biso   1.000  O
  O30      1.0000 0.81228  0.43260  0.98787  Biso   1.000  O
  O31      1.0000 0.86335  0.77196  0.57726  Biso   1.000  O
  O32      1.0000 0.84570  0.77470  0.41696  Biso   1.000  O
  O33      1.0000 0.84477  0.24344  0.56762  Biso   1.000  O
  O34      1.0000 0.87338  0.22200  0.40694  Biso   1.000  O
  O35      1.0000 0.89878  0.89260  0.48728  Biso   1.000  O
  O36      1.0000 0.89850  0.11213  0.50945  Biso   1.000  O
  O37      1.0000 0.94350  0.68278  0.48738  Biso   1.000  O
  O38      1.0000 0.94295  0.31970  0.50609  Biso   1.000  O
  O39      1.0000 0.10584  0.89193  0.48998  Biso   1.000  O
  O40      1.0000 0.10170  0.10903  0.51920  Biso   1.000  O
  O41      1.0000 0.14491  0.75615  0.54993  Biso   1.000  O
  O42      1.0000 0.14556  0.79030  0.39037  Biso   1.000  O
  O43      1.0000 0.13281  0.20957  0.62927  Biso   1.000  O
  O44      1.0000 0.16076  0.24345  0.47405  Biso   1.000  O
  O45      1.0000 0.18128  0.55506  0.98786  Biso   1.000  O
  O46      1.0000 0.18112  0.44103  0.02673  Biso   1.000  O
  O47      1.0000 0.18821  0.97809  0.58041  Biso   1.000  O
  O48      1.0000 0.20079  0.00987  0.43930  Biso   1.000  O
  O49      1.0000 0.23489  0.83450  0.54911  Biso   1.000  O
  O50      1.0000 0.22758  0.87619  0.39078  Biso   1.000  O
  O51      1.0000 0.21910  0.12641  0.63397  Biso   1.000  O
  O52      1.0000 0.24754  0.16098  0.46573  Biso   1.000  O
  O53      1.0000 0.26192  0.65568  0.05297  Biso   1.000  O
  O54      1.0000 0.28399  0.62698  0.89146  Biso   1.000  O
  O55      1.0000 0.27806  0.37763  0.12718  Biso   1.000  O
  O56      1.0000 0.25598  0.33702  0.96919  Biso   1.000  O
  O57      1.0000 0.29876  0.51251  0.07236  Biso   1.000  O
  O58      1.0000 0.29635  0.48081  0.93920  Biso   1.000  O
  O59      1.0000 0.31895  0.05893  0.54369  Biso   1.000  O
  O60      1.0000 0.31688  0.94434  0.50408  Biso   1.000  O
  O61      1.0000 0.34303  0.74371  0.04669  Biso   1.000  O
  O62      1.0000 0.36372  0.71615  0.88100  Biso   1.000  O
  O63      1.0000 0.36144  0.29285  0.13076  Biso   1.000  O
  O64      1.0000 0.33653  0.24965  0.97819  Biso   1.000  O
  O65      1.0000 0.39181  0.59625  0.99368  Biso   1.000  O
  O66      1.0000 0.38762  0.39104  0.01935  Biso   1.000  O
  O67      1.0000 0.43778  0.81481  0.96907  Biso   1.000  O
  O68      1.0000 0.44268  0.17962  0.04120  Biso   1.000  O
  O69      1.0000 0.49718  0.69428  0.06173  Biso   1.000  O
  O70      1.0000 0.51473  0.68477  0.91661  Biso   1.000  O
  O71      1.0000 0.50610  0.30254  0.09615  Biso   1.000  O
  O72      1.0000 0.47519  0.30185  0.95391  Biso   1.000  O
  Ti1      1.0000 0.57068  0.70381  0.99747  Biso   1.000  Ti
  Sn1      1.0000 0.57188  0.28855  0.00447  Biso   1.000  Sn
  Ti2      1.0000 0.70826  0.56979  0.98269  Biso   1.000  Ti
  Ti3      1.0000 0.70523  0.42712  0.99726  Biso   1.000  Ti
  Ti4      1.0000 0.07460  0.79368  0.46870  Biso   1.000  Ti
  Ti5      1.0000 0.06919  0.21262  0.53529  Biso   1.000  Ti
  Ti6      1.0000 0.79701  0.07184  0.50345  Biso   1.000  Ti
  Sn2      1.0000 0.79212  0.92374  0.49104  Biso   1.000  Sn
  Ti7      1.0000 0.93235  0.78929  0.48649  Biso   1.000  Ti
  Ti8      1.0000 0.92943  0.21220  0.50000  Biso   1.000  Ti
  Sn3      1.0000 0.20749  0.07547  0.53026  Biso   1.000  Sn
  Ti9      1.0000 0.20795  0.93008  0.49632  Biso   1.000  Ti
  Ti10     1.0000 0.28767  0.56453  0.98990  Biso   1.000  Ti
  Ti11     1.0000 0.28943  0.42436  0.02258  Biso   1.000  Ti
  Sn4      1.0000 0.42402  0.70151  0.97684  Biso   1.000  Sn
  Ti12     1.0000 0.42708  0.28928  0.04135  Biso   1.000  Ti
  N1       1.0000 0.19182  0.39280  0.24493  Biso   1.000  N
  H42      1.0000 0.20422  0.41019  0.19286  Biso   1.000  H
  H43      1.0000 0.14698  0.40938  0.27022  Biso   1.000  H
  N2       1.0000 0.31042  0.89178  0.27119  Biso   1.000  N
  H44      1.0000 0.34852  0.91493  0.24003  Biso   1.000  H
  H45      1.0000 0.29528  0.91284  0.32093  Biso   1.000  H
  N3       1.0000 0.83341  0.63790  0.17681  Biso   1.000  N
  H46      1.0000 0.81510  0.61283  0.13043  Biso   1.000  H
  H47      1.0000 0.87280  0.61597  0.20717  Biso   1.000  H
  N4       1.0000 0.71545  0.10841  0.29162  Biso   1.000  N
  H48      1.0000 0.68944  0.07716  0.25489  Biso   1.000  H
  H49      1.0000 0.73704  0.08496  0.33744  Biso   1.000  H
  N5       1.0000 0.33385  0.14408  0.87988  Biso   1.000  N
  H50      1.0000 0.35930  0.16741  0.92363  Biso   1.000  H
  H51      1.0000 0.36108  0.10873  0.84859  Biso   1.000  H
  N6       1.0000 0.13236  0.66397  0.66091  Biso   1.000  N
  H52      1.0000 0.10228  0.63726  0.69821  Biso   1.000  H
  H53      1.0000 0.10758  0.68901  0.61792  Biso   1.000  H
  N7       1.0000 0.65060  0.83363  0.81584  Biso   1.000  N
  H54      1.0000 0.62698  0.81360  0.86235  Biso   1.000  H
  H55      1.0000 0.62425  0.86927  0.78419  Biso   1.000  H
  N8       1.0000 0.83835  0.34462  0.67243  Biso   1.000  N
  H56      1.0000 0.86227  0.38132  0.70487  Biso   1.000  H
  H57      1.0000 0.86439  0.32551  0.62695  Biso   1.000  H
  N9       1.0000 0.57095  0.13025  0.54499  Biso   1.000  N
  H58      1.0000 0.54153  0.17498  0.54589  Biso   1.000  H
  H59      1.0000 0.62354  0.13378  0.53343  Biso   1.000  H
  N10      1.0000 0.13615  0.56652  0.47821  Biso   1.000  N
  H60      1.0000 0.13868  0.62029  0.47758  Biso   1.000  H
  H61      1.0000 0.17960  0.53928  0.49461  Biso   1.000  H
  H62      1.0000 0.06882  0.38365  0.01642  Biso   1.000  H
  N11      1.0000 0.93195  0.36065  0.00569  Biso   1.000  N
  H63      1.0000 0.87825  0.35771  0.00622  Biso   1.000  H
  H64      1.0000 0.96117  0.31862  0.02213  Biso   1.000  H
  H65      1.0000 0.92884  0.60226  0.97574  Biso   1.000  H
  H66      1.0000 0.06148  0.60878  0.98340  Biso   1.000  H
  N12      1.0000 0.36492  0.92706  0.01706  Biso   1.000  N
  H67      1.0000 0.32136  0.95821  0.01427  Biso   1.000  H
  H68      1.0000 0.36091  0.87691  0.99691  Biso   1.000  H
