data_image0
_cell_length_a       18.9052
_cell_length_b       18.9052
_cell_length_c       17.938
_cell_angle_alpha    90
_cell_angle_beta     90
_cell_angle_gamma    90

_symmetry_space_group_name_H-M    "P 1"
_symmetry_int_tables_number       1

loop_
  _symmetry_equiv_pos_as_xyz
  'x, y, z'

loop_
  _atom_site_label
  _atom_site_occupancy
  _atom_site_fract_x
  _atom_site_fract_y
  _atom_site_fract_z
  _atom_site_thermal_displace_type
  _atom_site_B_iso_or_equiv
  _atom_site_type_symbol
  C1       1.0000 0.00662  0.57319  0.48737  Biso   1.000  C
  C2       1.0000 0.00490  0.65116  0.48253  Biso   1.000  C
  C3       1.0000 0.00050  0.34679  0.51257  Biso   1.000  C
  C4       1.0000 0.00191  0.42538  0.50466  Biso   1.000  C
  C5       1.0000 0.03444  0.56048  0.99343  Biso   1.000  C
  C6       1.0000 0.03703  0.43233  0.00834  Biso   1.000  C
  C7       1.0000 0.53879  0.06643  0.51854  Biso   1.000  C
  C8       1.0000 0.53833  0.93820  0.49656  Biso   1.000  C
  C9       1.0000 0.56300  0.03425  0.00450  Biso   1.000  C
  C10      1.0000 0.56063  0.96134  0.99834  Biso   1.000  C
  C11      1.0000 0.57651  0.00190  0.50534  Biso   1.000  C
  C12      1.0000 0.07132  0.53385  0.48987  Biso   1.000  C
  C13      1.0000 0.06685  0.45978  0.50034  Biso   1.000  C
  C14      1.0000 0.65436  0.99898  0.50025  Biso   1.000  C
  C15      1.0000 0.69853  0.79428  0.78423  Biso   1.000  C
  C16      1.0000 0.68807  0.76911  0.21344  Biso   1.000  C
  C17      1.0000 0.67799  0.22064  0.77042  Biso   1.000  C
  C18      1.0000 0.70039  0.20953  0.20130  Biso   1.000  C
  C19      1.0000 0.70133  0.70467  0.88933  Biso   1.000  C
  C20      1.0000 0.69763  0.68775  0.10709  Biso   1.000  C
  C21      1.0000 0.68008  0.30535  0.87819  Biso   1.000  C
  C22      1.0000 0.70694  0.29522  0.09696  Biso   1.000  C
  C23      1.0000 0.72409  0.81270  0.71292  Biso   1.000  C
  C24      1.0000 0.71056  0.79686  0.28044  Biso   1.000  C
  C25      1.0000 0.70688  0.19840  0.70377  Biso   1.000  C
  C26      1.0000 0.72133  0.18317  0.27169  Biso   1.000  C
  C27      1.0000 0.72801  0.73281  0.81869  Biso   1.000  C
  C28      1.0000 0.72698  0.71602  0.17612  Biso   1.000  C
  C29      1.0000 0.70649  0.28152  0.80445  Biso   1.000  C
  C30      1.0000 0.73417  0.26705  0.16899  Biso   1.000  C
  C31      1.0000 0.07220  0.49670  0.00296  Biso   1.000  C
  C32      1.0000 0.77735  0.77367  0.67884  Biso   1.000  C
  C33      1.0000 0.77335  0.76980  0.31177  Biso   1.000  C
  C34      1.0000 0.76251  0.23591  0.66882  Biso   1.000  C
  C35      1.0000 0.77957  0.21729  0.30819  Biso   1.000  C
  C36      1.0000 0.78254  0.69465  0.78279  Biso   1.000  C
  C37      1.0000 0.79174  0.69002  0.20693  Biso   1.000  C
  C38      1.0000 0.76012  0.32033  0.77085  Biso   1.000  C
  C39      1.0000 0.79152  0.30066  0.20491  Biso   1.000  C
  C40      1.0000 0.80273  0.79654  0.60465  Biso   1.000  C
  C41      1.0000 0.79943  0.79782  0.38359  Biso   1.000  C
  C42      1.0000 0.79374  0.20545  0.60164  Biso   1.000  C
  C43      1.0000 0.80655  0.19382  0.38063  Biso   1.000  C
  C44      1.0000 0.80804  0.71442  0.71384  Biso   1.000  C
  C45      1.0000 0.81293  0.71784  0.27636  Biso   1.000  C
  C46      1.0000 0.78890  0.29975  0.70154  Biso   1.000  C
  C47      1.0000 0.81338  0.27523  0.27329  Biso   1.000  C
  C48      1.0000 0.84642  0.49502  0.98975  Biso   1.000  C
  C49      1.0000 0.92408  0.49296  0.99424  Biso   1.000  C
  C50      1.0000 0.94152  0.53674  0.49223  Biso   1.000  C
  C51      1.0000 0.93814  0.46391  0.49965  Biso   1.000  C
  C52      1.0000 0.96141  0.55759  0.98962  Biso   1.000  C
  C53      1.0000 0.96243  0.42820  0.00384  Biso   1.000  C
  C54      1.0000 0.15085  0.49734  0.00634  Biso   1.000  C
  C55      1.0000 0.19594  0.69710  0.69408  Biso   1.000  C
  C56      1.0000 0.18928  0.73478  0.25902  Biso   1.000  C
  C57      1.0000 0.18181  0.26728  0.76066  Biso   1.000  C
  C58      1.0000 0.20505  0.30017  0.32925  Biso   1.000  C
  C59      1.0000 0.20513  0.78629  0.58902  Biso   1.000  C
  C60      1.0000 0.20088  0.81464  0.36682  Biso   1.000  C
  C61      1.0000 0.18911  0.18594  0.65037  Biso   1.000  C
  C62      1.0000 0.21256  0.21179  0.43047  Biso   1.000  C
  C63      1.0000 0.22397  0.67292  0.76243  Biso   1.000  C
  C64      1.0000 0.20928  0.70849  0.19041  Biso   1.000  C
  C65      1.0000 0.20692  0.28785  0.82972  Biso   1.000  C
  C66      1.0000 0.22673  0.32956  0.26053  Biso   1.000  C
  C67      1.0000 0.23196  0.75402  0.65754  Biso   1.000  C
  C68      1.0000 0.22531  0.79183  0.29319  Biso   1.000  C
  C69      1.0000 0.21245  0.20768  0.72611  Biso   1.000  C
  C70      1.0000 0.24118  0.24378  0.36114  Biso   1.000  C
  C71      1.0000 0.28440  0.70314  0.79272  Biso   1.000  C
  C72      1.0000 0.26748  0.73980  0.15384  Biso   1.000  C
  C73      1.0000 0.26140  0.25044  0.86654  Biso   1.000  C
  C74      1.0000 0.28736  0.29906  0.22510  Biso   1.000  C
  C75      1.0000 0.29380  0.78305  0.68949  Biso   1.000  C
  C76      1.0000 0.28362  0.82439  0.25554  Biso   1.000  C
  C77      1.0000 0.26515  0.16887  0.76162  Biso   1.000  C
  C78      1.0000 0.30170  0.21458  0.32693  Biso   1.000  C
  C79      1.0000 0.31108  0.67684  0.86536  Biso   1.000  C
  C80      1.0000 0.29331  0.71007  0.08188  Biso   1.000  C
  C81      1.0000 0.28934  0.28029  0.93644  Biso   1.000  C
  C82      1.0000 0.31278  0.32358  0.15256  Biso   1.000  C
  C83      1.0000 0.32052  0.75847  0.75619  Biso   1.000  C
  C84      1.0000 0.30342  0.79651  0.18540  Biso   1.000  C
  C85      1.0000 0.29051  0.18836  0.83277  Biso   1.000  C
  C86      1.0000 0.32376  0.24261  0.25977  Biso   1.000  C
  C87      1.0000 0.34907  0.00019  0.51324  Biso   1.000  C
  C88      1.0000 0.42797  0.99988  0.51141  Biso   1.000  C
  C89      1.0000 0.43479  0.03548  0.01968  Biso   1.000  C
  C90      1.0000 0.43116  0.96113  0.01203  Biso   1.000  C
  C91      1.0000 0.46410  0.06326  0.52121  Biso   1.000  C
  C92      1.0000 0.46516  0.93621  0.49909  Biso   1.000  C
  C93      1.0000 0.49901  0.07120  0.01538  Biso   1.000  C
  C94      1.0000 0.49861  0.84630  0.99253  Biso   1.000  C
  C95      1.0000 0.49616  0.92370  0.00093  Biso   1.000  C
  C96      1.0000 0.49951  0.14970  0.02033  Biso   1.000  C
  H1       1.0000 0.56876  0.89020  0.48719  Biso   1.000  H
  H2       1.0000 0.57773  0.58287  0.94537  Biso   1.000  H
  H3       1.0000 0.57882  0.41685  0.04603  Biso   1.000  H
  H4       1.0000 0.61248  0.06326  0.00104  Biso   1.000  H
  H5       1.0000 0.60893  0.93097  0.99057  Biso   1.000  H
  H6       1.0000 0.63934  0.78705  0.18746  Biso   1.000  H
  H7       1.0000 0.63539  0.19203  0.79763  Biso   1.000  H
  H8       1.0000 0.65615  0.18527  0.17211  Biso   1.000  H
  H9       1.0000 0.70238  0.85834  0.68393  Biso   1.000  H
  H10      1.0000 0.68139  0.83789  0.30955  Biso   1.000  H
  H11      1.0000 0.68807  0.15058  0.67661  Biso   1.000  H
  H12      1.0000 0.80339  0.64850  0.81140  Biso   1.000  H
  H13      1.0000 0.78003  0.36734  0.79884  Biso   1.000  H
  H14      1.0000 0.81683  0.34579  0.17864  Biso   1.000  H
  H15      1.0000 0.85002  0.68553  0.68592  Biso   1.000  H
  H16      1.0000 0.86122  0.69907  0.30272  Biso   1.000  H
  H17      1.0000 0.85744  0.29947  0.30268  Biso   1.000  H
  H18      1.0000 0.89345  0.56826  0.48996  Biso   1.000  H
  H19      1.0000 0.88782  0.43625  0.50203  Biso   1.000  H
  H20      1.0000 0.11512  0.42861  0.50411  Biso   1.000  H
  H21      1.0000 0.14502  0.71186  0.28921  Biso   1.000  H
  H22      1.0000 0.14027  0.29633  0.73218  Biso   1.000  H
  H23      1.0000 0.15837  0.32083  0.35725  Biso   1.000  H
  H24      1.0000 0.19798  0.63011  0.79234  Biso   1.000  H
  H25      1.0000 0.18204  0.66430  0.16451  Biso   1.000  H
  H26      1.0000 0.18604  0.33462  0.85724  Biso   1.000  H
  H27      1.0000 0.31942  0.82608  0.65970  Biso   1.000  H
  H28      1.0000 0.28720  0.12287  0.73352  Biso   1.000  H
  H29      1.0000 0.32883  0.17053  0.35323  Biso   1.000  H
  H30      1.0000 0.36797  0.78055  0.78108  Biso   1.000  H
  H31      1.0000 0.34810  0.81929  0.15565  Biso   1.000  H
  H32      1.0000 0.36979  0.22141  0.23115  Biso   1.000  H
  H33      1.0000 0.38645  0.06557  0.02858  Biso   1.000  H
  H34      1.0000 0.41632  0.58326  0.04231  Biso   1.000  H
  H35      1.0000 0.41498  0.40540  0.96503  Biso   1.000  H
  H36      1.0000 0.43608  0.88714  0.49177  Biso   1.000  H
  H37      1.0000 0.43386  0.11136  0.53089  Biso   1.000  H
  O1       1.0000 0.00913  0.79938  0.55626  Biso   1.000  O
  O2       1.0000 0.99992  0.80585  0.41665  Biso   1.000  O
  O3       1.0000 0.98843  0.19415  0.58042  Biso   1.000  O
  O4       1.0000 0.00922  0.19994  0.44237  Biso   1.000  O
  O5       1.0000 0.55867  0.81476  0.99727  Biso   1.000  O
  O6       1.0000 0.55756  0.18159  0.00583  Biso   1.000  O
  O7       1.0000 0.06358  0.68512  0.47480  Biso   1.000  O
  O8       1.0000 0.05889  0.31529  0.52789  Biso   1.000  O
  O9       1.0000 0.60545  0.60523  0.98465  Biso   1.000  O
  O10      1.0000 0.60350  0.39113  0.00678  Biso   1.000  O
  O11      1.0000 0.63818  0.71287  0.08392  Biso   1.000  O
  O12      1.0000 0.65198  0.73713  0.92437  Biso   1.000  O
  O13      1.0000 0.65732  0.26212  0.06391  Biso   1.000  O
  O14      1.0000 0.62315  0.27783  0.90347  Biso   1.000  O
  O15      1.0000 0.68854  0.05853  0.49918  Biso   1.000  O
  O16      1.0000 0.68518  0.93888  0.49687  Biso   1.000  O
  O17      1.0000 0.69619  0.49875  0.05942  Biso   1.000  O
  O18      1.0000 0.69433  0.49679  0.92168  Biso   1.000  O
  O19      1.0000 0.73031  0.63893  0.07210  Biso   1.000  O
  O20      1.0000 0.72880  0.64644  0.91275  Biso   1.000  O
  O21      1.0000 0.73509  0.35237  0.07294  Biso   1.000  O
  O22      1.0000 0.71578  0.35202  0.91263  Biso   1.000  O
  O23      1.0000 0.76894  0.84566  0.57178  Biso   1.000  O
  O24      1.0000 0.76855  0.85188  0.41086  Biso   1.000  O
  O25      1.0000 0.76821  0.14591  0.57814  Biso   1.000  O
  O26      1.0000 0.77428  0.14264  0.41402  Biso   1.000  O
  O27      1.0000 0.80604  0.99288  0.56799  Biso   1.000  O
  O28      1.0000 0.80546  0.99701  0.42796  Biso   1.000  O
  O29      1.0000 0.81509  0.55533  0.98776  Biso   1.000  O
  O30      1.0000 0.81214  0.43598  0.98851  Biso   1.000  O
  O31      1.0000 0.85778  0.76538  0.57810  Biso   1.000  O
  O32      1.0000 0.85193  0.76575  0.41363  Biso   1.000  O
  O33      1.0000 0.84482  0.23721  0.56889  Biso   1.000  O
  O34      1.0000 0.86111  0.22470  0.40849  Biso   1.000  O
  O35      1.0000 0.88753  0.88546  0.49522  Biso   1.000  O
  O36      1.0000 0.89253  0.11175  0.50049  Biso   1.000  O
  O37      1.0000 0.94448  0.68228  0.48759  Biso   1.000  O
  O38      1.0000 0.94133  0.31530  0.50284  Biso   1.000  O
  O39      1.0000 0.11359  0.88803  0.49072  Biso   1.000  O
  O40      1.0000 0.11485  0.11139  0.51974  Biso   1.000  O
  O41      1.0000 0.15130  0.75900  0.55669  Biso   1.000  O
  O42      1.0000 0.14918  0.78051  0.39650  Biso   1.000  O
  O43      1.0000 0.13640  0.21949  0.62173  Biso   1.000  O
  O44      1.0000 0.15764  0.24083  0.45928  Biso   1.000  O
  O45      1.0000 0.18256  0.55589  0.99326  Biso   1.000  O
  O46      1.0000 0.18272  0.43927  0.02164  Biso   1.000  O
  O47      1.0000 0.19666  0.99167  0.57949  Biso   1.000  O
  O48      1.0000 0.20122  0.01288  0.44164  Biso   1.000  O
  O49      1.0000 0.23708  0.84188  0.56389  Biso   1.000  O
  O50      1.0000 0.23156  0.86719  0.39963  Biso   1.000  O
  O51      1.0000 0.22253  0.13605  0.61813  Biso   1.000  O
  O52      1.0000 0.24334  0.15726  0.45666  Biso   1.000  O
  O53      1.0000 0.26191  0.65519  0.05637  Biso   1.000  O
  O54      1.0000 0.28085  0.62421  0.89583  Biso   1.000  O
  O55      1.0000 0.28096  0.37394  0.11892  Biso   1.000  O
  O56      1.0000 0.25994  0.33675  0.96201  Biso   1.000  O
  O57      1.0000 0.30235  0.50906  0.07249  Biso   1.000  O
  O58      1.0000 0.29921  0.48485  0.93775  Biso   1.000  O
  O59      1.0000 0.31736  0.05816  0.52779  Biso   1.000  O
  O60      1.0000 0.31772  0.94119  0.49927  Biso   1.000  O
  O61      1.0000 0.34554  0.74031  0.05034  Biso   1.000  O
  O62      1.0000 0.36403  0.70933  0.89359  Biso   1.000  O
  O63      1.0000 0.36756  0.29293  0.12419  Biso   1.000  O
  O64      1.0000 0.34202  0.25056  0.96871  Biso   1.000  O
  O65      1.0000 0.39190  0.60486  0.00021  Biso   1.000  O
  O66      1.0000 0.39147  0.38875  0.01011  Biso   1.000  O
  O67      1.0000 0.44038  0.81275  0.98077  Biso   1.000  O
  O68      1.0000 0.44175  0.18142  0.03752  Biso   1.000  O
  O69      1.0000 0.49331  0.69734  0.05933  Biso   1.000  O
  O70      1.0000 0.50646  0.69419  0.92241  Biso   1.000  O
  O71      1.0000 0.51122  0.30203  0.08407  Biso   1.000  O
  O72      1.0000 0.48496  0.29603  0.94979  Biso   1.000  O
  Ti1      1.0000 0.57151  0.70680  0.99930  Biso   1.000  Ti
  Ti2      1.0000 0.56818  0.28909  0.00103  Biso   1.000  Ti
  Ti3      1.0000 0.70690  0.56944  0.98478  Biso   1.000  Ti
  Ti4      1.0000 0.70409  0.42630  0.99572  Biso   1.000  Ti
  Ti5      1.0000 0.07825  0.79630  0.47826  Biso   1.000  Ti
  Nb1      1.0000 0.07219  0.20081  0.52571  Biso   1.000  Nb
  Nb2      1.0000 0.80328  0.06942  0.50184  Biso   1.000  Nb
  Ti6      1.0000 0.79496  0.92123  0.49380  Biso   1.000  Ti
  Nb3      1.0000 0.93020  0.79616  0.49314  Biso   1.000  Nb
  Ti7      1.0000 0.92567  0.20521  0.49656  Biso   1.000  Ti
  Ti8      1.0000 0.20712  0.07535  0.52315  Biso   1.000  Ti
  Nb4      1.0000 0.20358  0.92846  0.49850  Biso   1.000  Nb
  Ti9      1.0000 0.29038  0.56834  0.99504  Biso   1.000  Ti
  Ti10     1.0000 0.29088  0.42551  0.01562  Biso   1.000  Ti
  Ti11     1.0000 0.42906  0.70456  0.98237  Biso   1.000  Ti
  Ti12     1.0000 0.42778  0.28921  0.03406  Biso   1.000  Ti
  N1       1.0000 0.18916  0.38413  0.23075  Biso   1.000  N
  H38      1.0000 0.20519  0.40560  0.18161  Biso   1.000  H
  H39      1.0000 0.14806  0.40499  0.25935  Biso   1.000  H
  N2       1.0000 0.32010  0.88036  0.28402  Biso   1.000  N
  H40      1.0000 0.36374  0.89821  0.25740  Biso   1.000  H
  H41      1.0000 0.30773  0.89832  0.33583  Biso   1.000  H
  N3       1.0000 0.83352  0.64131  0.17224  Biso   1.000  N
  H42      1.0000 0.81486  0.61713  0.12554  Biso   1.000  H
  H43      1.0000 0.87473  0.62009  0.20043  Biso   1.000  H
  N4       1.0000 0.68441  0.12811  0.30181  Biso   1.000  N
  H44      1.0000 0.65036  0.10104  0.26895  Biso   1.000  H
  H45      1.0000 0.70303  0.10538  0.34926  Biso   1.000  H
  N5       1.0000 0.34032  0.14696  0.86712  Biso   1.000  N
  H46      1.0000 0.36531  0.16864  0.91199  Biso   1.000  H
  H47      1.0000 0.36738  0.11198  0.83523  Biso   1.000  H
  N6       1.0000 0.13708  0.66481  0.66567  Biso   1.000  N
  H48      1.0000 0.10782  0.63434  0.70039  Biso   1.000  H
  H49      1.0000 0.11268  0.68855  0.62172  Biso   1.000  H
  N7       1.0000 0.64837  0.83567  0.81745  Biso   1.000  N
  H50      1.0000 0.62529  0.81731  0.86493  Biso   1.000  H
  H51      1.0000 0.62289  0.87217  0.78610  Biso   1.000  H
  N8       1.0000 0.83923  0.34104  0.66880  Biso   1.000  N
  H52      1.0000 0.86110  0.38088  0.69861  Biso   1.000  H
  H53      1.0000 0.86478  0.32203  0.62303  Biso   1.000  H
  N9       1.0000 0.57145  0.12991  0.53097  Biso   1.000  N
  H54      1.0000 0.54170  0.17443  0.53121  Biso   1.000  H
  H55      1.0000 0.62411  0.13348  0.51994  Biso   1.000  H
  N10      1.0000 0.13647  0.56426  0.48118  Biso   1.000  N
  H56      1.0000 0.13901  0.61806  0.48149  Biso   1.000  H
  H57      1.0000 0.17971  0.53633  0.49679  Biso   1.000  H
  H58      1.0000 0.06782  0.38419  0.01568  Biso   1.000  H
  N11      1.0000 0.93061  0.36376  0.00965  Biso   1.000  N
  H59      1.0000 0.87720  0.36035  0.00407  Biso   1.000  H
  H60      1.0000 0.96043  0.31965  0.01510  Biso   1.000  H
  H61      1.0000 0.93046  0.60562  0.98262  Biso   1.000  H
  H62      1.0000 0.06297  0.61020  0.98938  Biso   1.000  H
  N12      1.0000 0.36700  0.92829  0.01859  Biso   1.000  N
  H63      1.0000 0.32266  0.95833  0.01808  Biso   1.000  H
  H64      1.0000 0.36340  0.87643  0.00382  Biso   1.000  H
