data_image0
_cell_length_a       18.9052
_cell_length_b       18.9052
_cell_length_c       17.938
_cell_angle_alpha    90
_cell_angle_beta     90
_cell_angle_gamma    90

_symmetry_space_group_name_H-M    "P 1"
_symmetry_int_tables_number       1

loop_
  _symmetry_equiv_pos_as_xyz
  'x, y, z'

loop_
  _atom_site_label
  _atom_site_occupancy
  _atom_site_fract_x
  _atom_site_fract_y
  _atom_site_fract_z
  _atom_site_thermal_displace_type
  _atom_site_B_iso_or_equiv
  _atom_site_type_symbol
  C1       1.0000 0.00396  0.57349  0.48993  Biso   1.000  C
  C2       1.0000 0.00202  0.65172  0.48778  Biso   1.000  C
  C3       1.0000 0.00006  0.34545  0.50475  Biso   1.000  C
  C4       1.0000 0.00050  0.42453  0.49978  Biso   1.000  C
  C5       1.0000 0.03519  0.56041  0.99610  Biso   1.000  C
  C6       1.0000 0.03791  0.43251  0.00922  Biso   1.000  C
  C7       1.0000 0.53694  0.06623  0.51073  Biso   1.000  C
  C8       1.0000 0.53756  0.93722  0.49756  Biso   1.000  C
  C9       1.0000 0.56341  0.03338  0.99795  Biso   1.000  C
  C10      1.0000 0.56045  0.96011  0.99473  Biso   1.000  C
  C11      1.0000 0.57570  0.00141  0.50239  Biso   1.000  C
  C12      1.0000 0.06887  0.53436  0.48961  Biso   1.000  C
  C13      1.0000 0.06503  0.45978  0.49579  Biso   1.000  C
  C14      1.0000 0.65397  0.00022  0.49824  Biso   1.000  C
  C15      1.0000 0.69066  0.78860  0.77933  Biso   1.000  C
  C16      1.0000 0.68921  0.77686  0.21098  Biso   1.000  C
  C17      1.0000 0.69214  0.20873  0.78217  Biso   1.000  C
  C18      1.0000 0.69439  0.21020  0.20982  Biso   1.000  C
  C19      1.0000 0.69708  0.69674  0.88245  Biso   1.000  C
  C20      1.0000 0.69971  0.69585  0.10395  Biso   1.000  C
  C21      1.0000 0.69438  0.29544  0.88871  Biso   1.000  C
  C22      1.0000 0.70055  0.29637  0.10598  Biso   1.000  C
  C23      1.0000 0.71670  0.80996  0.70902  Biso   1.000  C
  C24      1.0000 0.71051  0.80327  0.27907  Biso   1.000  C
  C25      1.0000 0.71869  0.18792  0.71389  Biso   1.000  C
  C26      1.0000 0.71716  0.18319  0.27923  Biso   1.000  C
  C27      1.0000 0.72112  0.72646  0.81177  Biso   1.000  C
  C28      1.0000 0.72747  0.72288  0.17425  Biso   1.000  C
  C29      1.0000 0.71950  0.27084  0.81481  Biso   1.000  C
  C30      1.0000 0.72850  0.26709  0.17664  Biso   1.000  C
  C31      1.0000 0.07357  0.49667  0.00338  Biso   1.000  C
  C32      1.0000 0.77053  0.77275  0.67398  Biso   1.000  C
  C33      1.0000 0.77173  0.77431  0.31202  Biso   1.000  C
  C34      1.0000 0.77119  0.22757  0.67635  Biso   1.000  C
  C35      1.0000 0.77733  0.21608  0.31316  Biso   1.000  C
  C36      1.0000 0.77586  0.68983  0.77445  Biso   1.000  C
  C37      1.0000 0.79049  0.69456  0.20703  Biso   1.000  C
  C38      1.0000 0.77039  0.31149  0.77888  Biso   1.000  C
  C39      1.0000 0.78773  0.29952  0.21012  Biso   1.000  C
  C40      1.0000 0.79832  0.79857  0.60189  Biso   1.000  C
  C41      1.0000 0.79748  0.80022  0.38494  Biso   1.000  C
  C42      1.0000 0.79947  0.19967  0.60644  Biso   1.000  C
  C43      1.0000 0.80694  0.19261  0.38433  Biso   1.000  C
  C44      1.0000 0.80118  0.71210  0.70642  Biso   1.000  C
  C45      1.0000 0.81075  0.72158  0.27715  Biso   1.000  C
  C46      1.0000 0.79721  0.29190  0.70839  Biso   1.000  C
  C47      1.0000 0.81133  0.27336  0.27739  Biso   1.000  C
  C48      1.0000 0.84590  0.49555  0.99661  Biso   1.000  C
  C49      1.0000 0.92417  0.49334  0.99989  Biso   1.000  C
  C50      1.0000 0.93926  0.53616  0.49396  Biso   1.000  C
  C51      1.0000 0.93648  0.46299  0.49819  Biso   1.000  C
  C52      1.0000 0.96191  0.55771  0.99448  Biso   1.000  C
  C53      1.0000 0.96309  0.42870  0.00790  Biso   1.000  C
  C54      1.0000 0.15284  0.49706  0.00434  Biso   1.000  C
  C55      1.0000 0.19121  0.70647  0.70903  Biso   1.000  C
  C56      1.0000 0.18979  0.73026  0.27189  Biso   1.000  C
  C57      1.0000 0.18941  0.27298  0.73751  Biso   1.000  C
  C58      1.0000 0.20381  0.29290  0.31357  Biso   1.000  C
  C59      1.0000 0.19692  0.79379  0.60261  Biso   1.000  C
  C60      1.0000 0.19761  0.81033  0.37897  Biso   1.000  C
  C61      1.0000 0.19505  0.18983  0.63024  Biso   1.000  C
  C62      1.0000 0.20992  0.20589  0.41490  Biso   1.000  C
  C63      1.0000 0.21876  0.68559  0.77870  Biso   1.000  C
  C64      1.0000 0.21178  0.70357  0.20429  Biso   1.000  C
  C65      1.0000 0.21446  0.29496  0.80582  Biso   1.000  C
  C66      1.0000 0.22458  0.32094  0.24402  Biso   1.000  C
  C67      1.0000 0.22382  0.76565  0.67298  Biso   1.000  C
  C68      1.0000 0.22490  0.78748  0.30658  Biso   1.000  C
  C69      1.0000 0.22049  0.21287  0.70445  Biso   1.000  C
  C70      1.0000 0.23883  0.23554  0.34482  Biso   1.000  C
  C71      1.0000 0.27565  0.72079  0.81071  Biso   1.000  C
  C72      1.0000 0.27097  0.73494  0.16967  Biso   1.000  C
  C73      1.0000 0.26926  0.25835  0.84300  Biso   1.000  C
  C74      1.0000 0.28300  0.28766  0.20719  Biso   1.000  C
  C75      1.0000 0.28199  0.80004  0.70676  Biso   1.000  C
  C76      1.0000 0.28438  0.81999  0.27100  Biso   1.000  C
  C77      1.0000 0.27354  0.17491  0.74008  Biso   1.000  C
  C78      1.0000 0.29741  0.20383  0.30944  Biso   1.000  C
  C79      1.0000 0.30209  0.69467  0.88349  Biso   1.000  C
  C80      1.0000 0.29749  0.70413  0.09912  Biso   1.000  C
  C81      1.0000 0.29565  0.28999  0.91204  Biso   1.000  C
  C82      1.0000 0.30699  0.31074  0.13382  Biso   1.000  C
  C83      1.0000 0.30838  0.77852  0.77484  Biso   1.000  C
  C84      1.0000 0.30617  0.79183  0.20168  Biso   1.000  C
  C85      1.0000 0.29889  0.19570  0.81085  Biso   1.000  C
  C86      1.0000 0.31847  0.23034  0.24131  Biso   1.000  C
  C87      1.0000 0.34665  0.99778  0.50773  Biso   1.000  C
  C88      1.0000 0.42602  0.99892  0.50683  Biso   1.000  C
  C89      1.0000 0.43560  0.03587  0.01190  Biso   1.000  C
  C90      1.0000 0.43151  0.96115  0.00857  Biso   1.000  C
  C91      1.0000 0.46201  0.06288  0.51245  Biso   1.000  C
  C92      1.0000 0.46424  0.93499  0.49959  Biso   1.000  C
  C93      1.0000 0.49981  0.07163  0.00657  Biso   1.000  C
  C94      1.0000 0.49898  0.84409  0.99447  Biso   1.000  C
  C95      1.0000 0.49600  0.92236  0.99925  Biso   1.000  C
  C96      1.0000 0.49921  0.15087  0.00962  Biso   1.000  C
  H1       1.0000 0.56799  0.88870  0.49179  Biso   1.000  H
  H2       1.0000 0.61336  0.06152  0.99396  Biso   1.000  H
  H3       1.0000 0.60866  0.92927  0.98840  Biso   1.000  H
  H4       1.0000 0.64190  0.79665  0.18362  Biso   1.000  H
  H5       1.0000 0.65194  0.17836  0.81124  Biso   1.000  H
  H6       1.0000 0.64873  0.18696  0.18222  Biso   1.000  H
  H7       1.0000 0.69498  0.85665  0.68197  Biso   1.000  H
  H8       1.0000 0.68147  0.84473  0.30765  Biso   1.000  H
  H9       1.0000 0.70029  0.13968  0.68725  Biso   1.000  H
  H10      1.0000 0.79709  0.64304  0.80162  Biso   1.000  H
  H11      1.0000 0.78945  0.35936  0.80588  Biso   1.000  H
  H12      1.0000 0.81302  0.34409  0.18280  Biso   1.000  H
  H13      1.0000 0.84345  0.68462  0.67746  Biso   1.000  H
  H14      1.0000 0.85782  0.70129  0.30468  Biso   1.000  H
  H15      1.0000 0.85692  0.29630  0.30529  Biso   1.000  H
  H16      1.0000 0.89084  0.56723  0.49379  Biso   1.000  H
  H17      1.0000 0.88634  0.43499  0.50045  Biso   1.000  H
  H18      1.0000 0.11364  0.42897  0.49683  Biso   1.000  H
  H19      1.0000 0.14471  0.70766  0.30098  Biso   1.000  H
  H20      1.0000 0.14750  0.30087  0.70841  Biso   1.000  H
  H21      1.0000 0.15871  0.31533  0.34288  Biso   1.000  H
  H22      1.0000 0.19554  0.64099  0.80819  Biso   1.000  H
  H23      1.0000 0.18554  0.65921  0.17762  Biso   1.000  H
  H24      1.0000 0.19349  0.34197  0.83278  Biso   1.000  H
  H25      1.0000 0.30516  0.84451  0.67714  Biso   1.000  H
  H26      1.0000 0.29556  0.12847  0.71282  Biso   1.000  H
  H27      1.0000 0.32377  0.15918  0.33546  Biso   1.000  H
  H28      1.0000 0.35313  0.80461  0.80097  Biso   1.000  H
  H29      1.0000 0.35157  0.81451  0.17310  Biso   1.000  H
  H30      1.0000 0.36280  0.20729  0.21137  Biso   1.000  H
  H31      1.0000 0.38731  0.06648  0.01909  Biso   1.000  H
  H32      1.0000 0.43572  0.88524  0.49566  Biso   1.000  H
  H33      1.0000 0.43180  0.11157  0.51827  Biso   1.000  H
  O1       1.0000 0.99969  0.79970  0.56000  Biso   1.000  O
  O2       1.0000 0.99633  0.80550  0.42251  Biso   1.000  O
  O3       1.0000 0.99645  0.19500  0.57439  Biso   1.000  O
  O4       1.0000 0.00902  0.19662  0.43740  Biso   1.000  O
  O5       1.0000 0.55821  0.81290  0.99168  Biso   1.000  O
  O6       1.0000 0.55971  0.18279  0.00258  Biso   1.000  O
  O7       1.0000 0.06077  0.68622  0.48487  Biso   1.000  O
  O8       1.0000 0.05994  0.31428  0.51343  Biso   1.000  O
  O9       1.0000 0.61078  0.60986  0.99331  Biso   1.000  O
  O10      1.0000 0.60872  0.38128  0.99734  Biso   1.000  O
  O11      1.0000 0.64248  0.72534  0.07820  Biso   1.000  O
  O12      1.0000 0.64489  0.72830  0.91620  Biso   1.000  O
  O13      1.0000 0.64845  0.26283  0.07499  Biso   1.000  O
  O14      1.0000 0.63927  0.26371  0.91632  Biso   1.000  O
  O15      1.0000 0.68796  0.05858  0.49735  Biso   1.000  O
  O16      1.0000 0.68560  0.93902  0.49526  Biso   1.000  O
  O17      1.0000 0.69461  0.49900  0.06263  Biso   1.000  O
  O18      1.0000 0.69483  0.49399  0.92507  Biso   1.000  O
  O19      1.0000 0.73135  0.64535  0.07076  Biso   1.000  O
  O20      1.0000 0.72738  0.64180  0.90808  Biso   1.000  O
  O21      1.0000 0.72849  0.35206  0.08077  Biso   1.000  O
  O22      1.0000 0.72746  0.34508  0.92016  Biso   1.000  O
  O23      1.0000 0.76557  0.85150  0.57159  Biso   1.000  O
  O24      1.0000 0.76540  0.85498  0.41283  Biso   1.000  O
  O25      1.0000 0.77173  0.14136  0.58129  Biso   1.000  O
  O26      1.0000 0.77441  0.14171  0.41910  Biso   1.000  O
  O27      1.0000 0.80515  0.99280  0.56675  Biso   1.000  O
  O28      1.0000 0.80559  0.99678  0.42619  Biso   1.000  O
  O29      1.0000 0.81446  0.55555  0.99375  Biso   1.000  O
  O30      1.0000 0.81182  0.43604  0.99680  Biso   1.000  O
  O31      1.0000 0.85201  0.76821  0.57492  Biso   1.000  O
  O32      1.0000 0.84849  0.76839  0.41524  Biso   1.000  O
  O33      1.0000 0.84924  0.23200  0.57281  Biso   1.000  O
  O34      1.0000 0.86231  0.22245  0.40953  Biso   1.000  O
  O35      1.0000 0.88298  0.88605  0.49356  Biso   1.000  O
  O36      1.0000 0.89135  0.10845  0.50067  Biso   1.000  O
  O37      1.0000 0.94132  0.68273  0.48987  Biso   1.000  O
  O38      1.0000 0.94084  0.31326  0.49978  Biso   1.000  O
  O39      1.0000 0.11141  0.88959  0.49684  Biso   1.000  O
  O40      1.0000 0.11720  0.11085  0.50896  Biso   1.000  O
  O41      1.0000 0.14438  0.76450  0.57076  Biso   1.000  O
  O42      1.0000 0.14507  0.77742  0.40681  Biso   1.000  O
  O43      1.0000 0.14238  0.22173  0.60281  Biso   1.000  O
  O44      1.0000 0.15771  0.23604  0.44464  Biso   1.000  O
  O45      1.0000 0.18400  0.55711  0.99712  Biso   1.000  O
  O46      1.0000 0.18521  0.43815  0.01208  Biso   1.000  O
  O47      1.0000 0.19421  0.99757  0.57571  Biso   1.000  O
  O48      1.0000 0.19830  0.00723  0.43559  Biso   1.000  O
  O49      1.0000 0.22879  0.84904  0.57523  Biso   1.000  O
  O50      1.0000 0.22863  0.86299  0.41218  Biso   1.000  O
  O51      1.0000 0.22888  0.13839  0.59849  Biso   1.000  O
  O52      1.0000 0.24040  0.14921  0.44047  Biso   1.000  O
  O53      1.0000 0.26605  0.65103  0.07254  Biso   1.000  O
  O54      1.0000 0.27179  0.64198  0.91250  Biso   1.000  O
  O55      1.0000 0.27483  0.36070  0.10039  Biso   1.000  O
  O56      1.0000 0.26589  0.34542  0.93714  Biso   1.000  O
  O57      1.0000 0.30281  0.50367  0.07155  Biso   1.000  O
  O58      1.0000 0.30239  0.49405  0.93428  Biso   1.000  O
  O59      1.0000 0.31457  0.05829  0.51539  Biso   1.000  O
  O60      1.0000 0.31518  0.93916  0.50047  Biso   1.000  O
  O61      1.0000 0.35244  0.73420  0.06941  Biso   1.000  O
  O62      1.0000 0.35531  0.72828  0.91233  Biso   1.000  O
  O63      1.0000 0.36104  0.27760  0.10524  Biso   1.000  O
  O64      1.0000 0.34949  0.26013  0.94445  Biso   1.000  O
  O65      1.0000 0.38817  0.61241  0.99701  Biso   1.000  O
  O66      1.0000 0.38893  0.38542  0.00916  Biso   1.000  O
  O67      1.0000 0.43861  0.80993  0.99314  Biso   1.000  O
  O68      1.0000 0.44075  0.18240  0.01816  Biso   1.000  O
  O69      1.0000 0.49571  0.69405  0.06546  Biso   1.000  O
  O70      1.0000 0.49663  0.69118  0.92460  Biso   1.000  O
  O71      1.0000 0.50807  0.30242  0.07739  Biso   1.000  O
  O72      1.0000 0.49652  0.29931  0.93718  Biso   1.000  O
  Ti1      1.0000 0.58008  0.69737  0.99675  Biso   1.000  Ti
  W1       1.0000 0.56979  0.29470  0.00043  Biso   1.000  W
  Ti2      1.0000 0.70292  0.56902  0.98984  Biso   1.000  Ti
  Ti3      1.0000 0.70338  0.42658  0.99766  Biso   1.000  Ti
  Ti4      1.0000 0.07045  0.79829  0.48783  Biso   1.000  Ti
  Ti5      1.0000 0.07221  0.20637  0.51419  Biso   1.000  Ti
  Ti6      1.0000 0.80367  0.07762  0.50186  Biso   1.000  Ti
  W2       1.0000 0.79750  0.92679  0.49358  Biso   1.000  W
  Ti7      1.0000 0.92813  0.79022  0.49358  Biso   1.000  Ti
  Ti8      1.0000 0.93046  0.20121  0.49721  Biso   1.000  Ti
  W3       1.0000 0.20285  0.07027  0.51046  Biso   1.000  W
  Ti9      1.0000 0.19955  0.91916  0.50162  Biso   1.000  Ti
  Ti10     1.0000 0.29200  0.56868  0.99817  Biso   1.000  Ti
  Ti11     1.0000 0.29690  0.42637  0.00753  Biso   1.000  Ti
  W4       1.0000 0.42853  0.69812  0.99411  Biso   1.000  W
  Ti12     1.0000 0.41911  0.29786  0.01802  Biso   1.000  Ti
  N1       1.0000 0.18863  0.37695  0.21523  Biso   1.000  N
  H34      1.0000 0.20252  0.39608  0.16429  Biso   1.000  H
  H35      1.0000 0.14734  0.39772  0.24361  Biso   1.000  H
  N2       1.0000 0.32012  0.87611  0.30021  Biso   1.000  N
  H36      1.0000 0.36499  0.89303  0.27520  Biso   1.000  H
  H37      1.0000 0.30718  0.89374  0.35200  Biso   1.000  H
  N3       1.0000 0.83141  0.64446  0.17372  Biso   1.000  N
  H38      1.0000 0.81414  0.62154  0.12572  Biso   1.000  H
  H39      1.0000 0.87259  0.62340  0.20208  Biso   1.000  H
  N4       1.0000 0.68015  0.12888  0.31071  Biso   1.000  N
  H40      1.0000 0.64386  0.10304  0.27946  Biso   1.000  H
  H41      1.0000 0.69946  0.10573  0.35762  Biso   1.000  H
  N5       1.0000 0.34865  0.15489  0.84564  Biso   1.000  N
  H42      1.0000 0.37319  0.17509  0.89143  Biso   1.000  H
  H43      1.0000 0.37387  0.11739  0.81536  Biso   1.000  H
  N6       1.0000 0.13652  0.66908  0.67875  Biso   1.000  N
  H44      1.0000 0.11006  0.63454  0.71165  Biso   1.000  H
  H45      1.0000 0.11203  0.68966  0.63310  Biso   1.000  H
  N7       1.0000 0.63952  0.82826  0.81278  Biso   1.000  N
  H46      1.0000 0.61748  0.81120  0.86124  Biso   1.000  H
  H47      1.0000 0.61741  0.86883  0.78436  Biso   1.000  H
  N8       1.0000 0.84509  0.33460  0.67384  Biso   1.000  N
  H48      1.0000 0.86563  0.37616  0.70201  Biso   1.000  H
  H49      1.0000 0.86900  0.31690  0.62651  Biso   1.000  H
  N9       1.0000 0.56905  0.13047  0.51869  Biso   1.000  N
  H50      1.0000 0.53935  0.17497  0.51715  Biso   1.000  H
  H51      1.0000 0.62232  0.13321  0.51089  Biso   1.000  H
  N10      1.0000 0.13367  0.56568  0.48213  Biso   1.000  N
  H52      1.0000 0.13602  0.61943  0.48461  Biso   1.000  H
  H53      1.0000 0.17765  0.53687  0.49272  Biso   1.000  H
  H54      1.0000 0.06856  0.38406  0.01483  Biso   1.000  H
  N11      1.0000 0.93132  0.36419  0.01606  Biso   1.000  N
  H55      1.0000 0.87819  0.36097  0.00763  Biso   1.000  H
  H56      1.0000 0.96133  0.31996  0.01313  Biso   1.000  H
  H57      1.0000 0.93108  0.60596  0.98846  Biso   1.000  H
  H58      1.0000 0.06343  0.61028  0.99172  Biso   1.000  H
  N12      1.0000 0.36689  0.92942  0.01678  Biso   1.000  N
  H59      1.0000 0.32284  0.95974  0.01374  Biso   1.000  H
  H60      1.0000 0.36322  0.87671  0.00605  Biso   1.000  H
