data_image0
_cell_length_a       18.9052
_cell_length_b       18.9052
_cell_length_c       17.938
_cell_angle_alpha    90
_cell_angle_beta     90
_cell_angle_gamma    90

_symmetry_space_group_name_H-M    "P 1"
_symmetry_int_tables_number       1

loop_
  _symmetry_equiv_pos_as_xyz
  'x, y, z'

loop_
  _atom_site_label
  _atom_site_occupancy
  _atom_site_fract_x
  _atom_site_fract_y
  _atom_site_fract_z
  _atom_site_thermal_displace_type
  _atom_site_B_iso_or_equiv
  _atom_site_type_symbol
  C1       1.0000 0.00562  0.57396  0.49155  Biso   1.000  C
  C2       1.0000 0.00326  0.65166  0.48765  Biso   1.000  C
  C3       1.0000 0.00074  0.34827  0.51245  Biso   1.000  C
  C4       1.0000 0.00158  0.42660  0.50617  Biso   1.000  C
  C5       1.0000 0.03448  0.55982  0.99235  Biso   1.000  C
  C6       1.0000 0.03720  0.43149  0.00672  Biso   1.000  C
  C7       1.0000 0.53758  0.06806  0.52316  Biso   1.000  C
  C8       1.0000 0.53864  0.93940  0.50183  Biso   1.000  C
  C9       1.0000 0.56280  0.03308  0.00472  Biso   1.000  C
  C10      1.0000 0.56032  0.96012  0.99898  Biso   1.000  C
  C11      1.0000 0.57587  0.00365  0.51109  Biso   1.000  C
  C12      1.0000 0.07073  0.53524  0.49382  Biso   1.000  C
  C13      1.0000 0.06651  0.46106  0.50305  Biso   1.000  C
  C14      1.0000 0.65349  0.00154  0.50716  Biso   1.000  C
  C15      1.0000 0.69813  0.79466  0.78191  Biso   1.000  C
  C16      1.0000 0.68914  0.77001  0.21236  Biso   1.000  C
  C17      1.0000 0.68158  0.21918  0.77031  Biso   1.000  C
  C18      1.0000 0.70091  0.20801  0.20256  Biso   1.000  C
  C19      1.0000 0.70069  0.70400  0.88651  Biso   1.000  C
  C20      1.0000 0.69806  0.68761  0.10635  Biso   1.000  C
  C21      1.0000 0.68191  0.30446  0.87800  Biso   1.000  C
  C22      1.0000 0.70618  0.29425  0.09814  Biso   1.000  C
  C23      1.0000 0.72424  0.81430  0.71102  Biso   1.000  C
  C24      1.0000 0.71221  0.79861  0.27887  Biso   1.000  C
  C25      1.0000 0.71080  0.19728  0.70350  Biso   1.000  C
  C26      1.0000 0.72317  0.18109  0.27233  Biso   1.000  C
  C27      1.0000 0.72761  0.73290  0.81607  Biso   1.000  C
  C28      1.0000 0.72739  0.71606  0.17556  Biso   1.000  C
  C29      1.0000 0.70886  0.28069  0.80424  Biso   1.000  C
  C30      1.0000 0.73444  0.26554  0.16973  Biso   1.000  C
  C31      1.0000 0.07224  0.49599  0.00173  Biso   1.000  C
  C32      1.0000 0.77815  0.77631  0.67669  Biso   1.000  C
  C33      1.0000 0.77498  0.77168  0.31055  Biso   1.000  C
  C34      1.0000 0.76544  0.23564  0.66787  Biso   1.000  C
  C35      1.0000 0.78260  0.21428  0.30755  Biso   1.000  C
  C36      1.0000 0.78275  0.69574  0.77990  Biso   1.000  C
  C37      1.0000 0.79194  0.68985  0.20692  Biso   1.000  C
  C38      1.0000 0.76183  0.32024  0.77004  Biso   1.000  C
  C39      1.0000 0.79284  0.29838  0.20461  Biso   1.000  C
  C40      1.0000 0.80416  0.79994  0.60239  Biso   1.000  C
  C41      1.0000 0.80201  0.80102  0.38167  Biso   1.000  C
  C42      1.0000 0.79655  0.20536  0.59970  Biso   1.000  C
  C43      1.0000 0.81087  0.18965  0.37919  Biso   1.000  C
  C44      1.0000 0.80873  0.71674  0.71142  Biso   1.000  C
  C45      1.0000 0.81374  0.71859  0.27587  Biso   1.000  C
  C46      1.0000 0.79058  0.29997  0.70049  Biso   1.000  C
  C47      1.0000 0.81621  0.27209  0.27219  Biso   1.000  C
  C48      1.0000 0.84652  0.49430  0.98962  Biso   1.000  C
  C49      1.0000 0.92419  0.49216  0.99319  Biso   1.000  C
  C50      1.0000 0.94050  0.53740  0.49547  Biso   1.000  C
  C51      1.0000 0.93743  0.46451  0.50148  Biso   1.000  C
  C52      1.0000 0.96143  0.55689  0.98864  Biso   1.000  C
  C53      1.0000 0.96258  0.42730  0.00212  Biso   1.000  C
  C54      1.0000 0.15085  0.49681  0.00542  Biso   1.000  C
  C55      1.0000 0.19320  0.69916  0.69473  Biso   1.000  C
  C56      1.0000 0.18590  0.73977  0.25886  Biso   1.000  C
  C57      1.0000 0.17831  0.26294  0.76001  Biso   1.000  C
  C58      1.0000 0.20377  0.29969  0.33026  Biso   1.000  C
  C59      1.0000 0.20226  0.78712  0.58769  Biso   1.000  C
  C60      1.0000 0.19791  0.82198  0.36542  Biso   1.000  C
  C61      1.0000 0.18309  0.17800  0.65207  Biso   1.000  C
  C62      1.0000 0.21190  0.21395  0.43477  Biso   1.000  C
  C63      1.0000 0.22148  0.67501  0.76306  Biso   1.000  C
  C64      1.0000 0.20657  0.71180  0.19105  Biso   1.000  C
  C65      1.0000 0.20508  0.28558  0.82777  Biso   1.000  C
  C66      1.0000 0.22490  0.32748  0.26045  Biso   1.000  C
  C67      1.0000 0.22914  0.75572  0.65735  Biso   1.000  C
  C68      1.0000 0.22318  0.79597  0.29314  Biso   1.000  C
  C69      1.0000 0.20801  0.20222  0.72661  Biso   1.000  C
  C70      1.0000 0.23994  0.24398  0.36355  Biso   1.000  C
  C71      1.0000 0.28228  0.70487  0.79318  Biso   1.000  C
  C72      1.0000 0.26660  0.74057  0.15534  Biso   1.000  C
  C73      1.0000 0.26034  0.24923  0.86457  Biso   1.000  C
  C74      1.0000 0.28534  0.29645  0.22493  Biso   1.000  C
  C75      1.0000 0.29116  0.78454  0.68917  Biso   1.000  C
  C76      1.0000 0.28369  0.82562  0.25660  Biso   1.000  C
  C77      1.0000 0.26158  0.16452  0.76212  Biso   1.000  C
  C78      1.0000 0.29997  0.21393  0.32894  Biso   1.000  C
  C79      1.0000 0.30931  0.67808  0.86577  Biso   1.000  C
  C80      1.0000 0.29282  0.70950  0.08393  Biso   1.000  C
  C81      1.0000 0.28954  0.28072  0.93331  Biso   1.000  C
  C82      1.0000 0.31099  0.32052  0.15196  Biso   1.000  C
  C83      1.0000 0.31818  0.76007  0.75604  Biso   1.000  C
  C84      1.0000 0.30390  0.79634  0.18718  Biso   1.000  C
  C85      1.0000 0.28859  0.18611  0.83201  Biso   1.000  C
  C86      1.0000 0.32163  0.24050  0.26080  Biso   1.000  C
  C87      1.0000 0.34911  0.99973  0.51426  Biso   1.000  C
  C88      1.0000 0.42777  0.00023  0.51411  Biso   1.000  C
  C89      1.0000 0.43437  0.03460  0.01871  Biso   1.000  C
  C90      1.0000 0.43065  0.96019  0.01171  Biso   1.000  C
  C91      1.0000 0.46288  0.06416  0.52429  Biso   1.000  C
  C92      1.0000 0.46552  0.93669  0.50289  Biso   1.000  C
  C93      1.0000 0.49871  0.07016  0.01462  Biso   1.000  C
  C94      1.0000 0.49806  0.84529  0.99265  Biso   1.000  C
  C95      1.0000 0.49570  0.92265  0.00118  Biso   1.000  C
  C96      1.0000 0.49915  0.14868  0.01884  Biso   1.000  C
  H1       1.0000 0.56979  0.89165  0.49332  Biso   1.000  H
  H2       1.0000 0.57788  0.58205  0.94492  Biso   1.000  H
  H3       1.0000 0.57825  0.41556  0.04560  Biso   1.000  H
  H4       1.0000 0.61240  0.06205  0.00163  Biso   1.000  H
  H5       1.0000 0.60863  0.92950  0.99179  Biso   1.000  H
  H6       1.0000 0.64045  0.78816  0.18627  Biso   1.000  H
  H7       1.0000 0.63954  0.18970  0.79761  Biso   1.000  H
  H8       1.0000 0.65582  0.18421  0.17425  Biso   1.000  H
  H9       1.0000 0.70228  0.86020  0.68251  Biso   1.000  H
  H10      1.0000 0.68343  0.84049  0.30721  Biso   1.000  H
  H11      1.0000 0.69276  0.14892  0.67667  Biso   1.000  H
  H12      1.0000 0.08689  0.08971  0.46530  Biso   1.000  H
  H13      1.0000 0.08234  0.91272  0.53829  Biso   1.000  H
  H14      1.0000 0.80380  0.64926  0.80794  Biso   1.000  H
  H15      1.0000 0.78103  0.36784  0.79764  Biso   1.000  H
  H16      1.0000 0.81792  0.34363  0.17815  Biso   1.000  H
  H17      1.0000 0.85119  0.68840  0.68353  Biso   1.000  H
  H18      1.0000 0.86216  0.69988  0.30223  Biso   1.000  H
  H19      1.0000 0.86132  0.29573  0.30049  Biso   1.000  H
  H20      1.0000 0.89232  0.56890  0.49355  Biso   1.000  H
  H21      1.0000 0.88725  0.43643  0.50319  Biso   1.000  H
  H22      1.0000 0.92392  0.08628  0.54597  Biso   1.000  H
  H23      1.0000 0.92094  0.92235  0.52201  Biso   1.000  H
  H24      1.0000 0.11487  0.42988  0.50661  Biso   1.000  H
  H25      1.0000 0.13988  0.71901  0.28799  Biso   1.000  H
  H26      1.0000 0.13605  0.29127  0.73175  Biso   1.000  H
  H27      1.0000 0.15731  0.32119  0.35815  Biso   1.000  H
  H28      1.0000 0.19540  0.63225  0.79311  Biso   1.000  H
  H29      1.0000 0.17818  0.66832  0.16502  Biso   1.000  H
  H30      1.0000 0.18475  0.33318  0.85433  Biso   1.000  H
  H31      1.0000 0.31695  0.82739  0.65909  Biso   1.000  H
  H32      1.0000 0.28297  0.11758  0.73504  Biso   1.000  H
  H33      1.0000 0.32744  0.17035  0.35590  Biso   1.000  H
  H34      1.0000 0.36592  0.78222  0.78045  Biso   1.000  H
  H35      1.0000 0.35014  0.81708  0.15829  Biso   1.000  H
  H36      1.0000 0.36756  0.21853  0.23247  Biso   1.000  H
  H37      1.0000 0.38598  0.06493  0.02688  Biso   1.000  H
  H38      1.0000 0.41575  0.58324  0.04308  Biso   1.000  H
  H39      1.0000 0.41557  0.40554  0.96742  Biso   1.000  H
  H40      1.0000 0.43690  0.88735  0.49518  Biso   1.000  H
  H41      1.0000 0.43188  0.11203  0.53299  Biso   1.000  H
  O1       1.0000 0.00556  0.80826  0.55176  Biso   1.000  O
  O2       1.0000 0.99650  0.79702  0.41507  Biso   1.000  O
  O3       1.0000 0.98845  0.19613  0.57774  Biso   1.000  O
  O4       1.0000 0.01499  0.20194  0.44349  Biso   1.000  O
  O5       1.0000 0.55811  0.81369  0.99715  Biso   1.000  O
  O6       1.0000 0.55721  0.18051  0.00417  Biso   1.000  O
  O7       1.0000 0.06209  0.68575  0.47936  Biso   1.000  O
  O8       1.0000 0.05804  0.31672  0.53078  Biso   1.000  O
  O9       1.0000 0.60577  0.60461  0.98401  Biso   1.000  O
  O10      1.0000 0.60324  0.39012  0.00627  Biso   1.000  O
  O11      1.0000 0.63875  0.71296  0.08275  Biso   1.000  O
  O12      1.0000 0.65084  0.73586  0.92146  Biso   1.000  O
  O13      1.0000 0.65632  0.26124  0.06548  Biso   1.000  O
  O14      1.0000 0.62508  0.27642  0.90354  Biso   1.000  O
  O15      1.0000 0.68817  0.06025  0.50892  Biso   1.000  O
  O16      1.0000 0.68435  0.94104  0.50229  Biso   1.000  O
  O17      1.0000 0.69582  0.49875  0.05887  Biso   1.000  O
  O18      1.0000 0.69486  0.49574  0.92122  Biso   1.000  O
  O19      1.0000 0.73073  0.63871  0.07139  Biso   1.000  O
  O20      1.0000 0.72848  0.64578  0.91006  Biso   1.000  O
  O21      1.0000 0.73416  0.35167  0.07414  Biso   1.000  O
  O22      1.0000 0.71686  0.35167  0.91246  Biso   1.000  O
  O23      1.0000 0.77008  0.84878  0.56920  Biso   1.000  O
  O24      1.0000 0.77280  0.85753  0.40653  Biso   1.000  O
  O25      1.0000 0.77280  0.14466  0.57868  Biso   1.000  O
  O26      1.0000 0.77758  0.14249  0.41626  Biso   1.000  O
  O27      1.0000 0.81382  0.99503  0.56271  Biso   1.000  O
  O28      1.0000 0.79423  0.00190  0.42696  Biso   1.000  O
  O29      1.0000 0.81532  0.55471  0.98697  Biso   1.000  O
  O30      1.0000 0.81214  0.43532  0.98995  Biso   1.000  O
  O31      1.0000 0.85952  0.76947  0.57657  Biso   1.000  O
  O32      1.0000 0.85273  0.76949  0.41395  Biso   1.000  O
  O33      1.0000 0.84541  0.23849  0.56459  Biso   1.000  O
  O34      1.0000 0.86968  0.21629  0.40303  Biso   1.000  O
  O35      1.0000 0.89247  0.89105  0.49110  Biso   1.000  O
  O36      1.0000 0.89813  0.10626  0.50382  Biso   1.000  O
  O37      1.0000 0.94350  0.68299  0.49441  Biso   1.000  O
  O38      1.0000 0.94236  0.31644  0.49815  Biso   1.000  O
  O39      1.0000 0.10850  0.89421  0.49568  Biso   1.000  O
  O40      1.0000 0.10910  0.10890  0.51007  Biso   1.000  O
  O41      1.0000 0.14739  0.75990  0.55717  Biso   1.000  O
  O42      1.0000 0.14457  0.78988  0.39551  Biso   1.000  O
  O43      1.0000 0.13023  0.21046  0.62275  Biso   1.000  O
  O44      1.0000 0.15914  0.24417  0.46515  Biso   1.000  O
  O45      1.0000 0.18238  0.55560  0.99288  Biso   1.000  O
  O46      1.0000 0.18284  0.43871  0.02041  Biso   1.000  O
  O47      1.0000 0.19680  0.98811  0.57672  Biso   1.000  O
  O48      1.0000 0.20260  0.01198  0.44202  Biso   1.000  O
  O49      1.0000 0.23490  0.84092  0.56006  Biso   1.000  O
  O50      1.0000 0.22777  0.87462  0.39718  Biso   1.000  O
  O51      1.0000 0.21490  0.12683  0.62076  Biso   1.000  O
  O52      1.0000 0.24244  0.15856  0.46071  Biso   1.000  O
  O53      1.0000 0.26108  0.65454  0.05893  Biso   1.000  O
  O54      1.0000 0.27871  0.62591  0.89679  Biso   1.000  O
  O55      1.0000 0.27953  0.37109  0.11806  Biso   1.000  O
  O56      1.0000 0.26107  0.33820  0.95753  Biso   1.000  O
  O57      1.0000 0.30096  0.50843  0.07320  Biso   1.000  O
  O58      1.0000 0.29998  0.48534  0.93822  Biso   1.000  O
  O59      1.0000 0.31686  0.05791  0.52805  Biso   1.000  O
  O60      1.0000 0.31782  0.94112  0.50002  Biso   1.000  O
  O61      1.0000 0.34561  0.73885  0.05245  Biso   1.000  O
  O62      1.0000 0.36308  0.70977  0.89359  Biso   1.000  O
  O63      1.0000 0.36564  0.28941  0.12350  Biso   1.000  O
  O64      1.0000 0.34217  0.25113  0.96582  Biso   1.000  O
  O65      1.0000 0.39123  0.60432  0.00069  Biso   1.000  O
  O66      1.0000 0.39149  0.38837  0.01203  Biso   1.000  O
  O67      1.0000 0.43964  0.81190  0.98088  Biso   1.000  O
  O68      1.0000 0.44124  0.18036  0.03563  Biso   1.000  O
  O69      1.0000 0.49320  0.69623  0.05896  Biso   1.000  O
  O70      1.0000 0.50576  0.69309  0.92210  Biso   1.000  O
  O71      1.0000 0.51078  0.30023  0.08343  Biso   1.000  O
  O72      1.0000 0.48482  0.29571  0.94910  Biso   1.000  O
  Ti1      1.0000 0.57129  0.70577  0.99874  Biso   1.000  Ti
  Ti2      1.0000 0.56799  0.28806  0.99960  Biso   1.000  Ti
  Ti3      1.0000 0.70741  0.56907  0.98319  Biso   1.000  Ti
  Ti4      1.0000 0.70394  0.42565  0.99642  Biso   1.000  Ti
  Ti5      1.0000 0.07289  0.79378  0.47512  Biso   1.000  Ti
  Ti6      1.0000 0.07161  0.20909  0.52882  Biso   1.000  Ti
  Ti7      1.0000 0.79741  0.06993  0.50267  Biso   1.000  Ti
  Ti8      1.0000 0.79012  0.92668  0.48958  Biso   1.000  Ti
  Ti9      1.0000 0.92983  0.79093  0.49243  Biso   1.000  Ti
  Ti10     1.0000 0.93135  0.20888  0.49289  Biso   1.000  Ti
  Ti11     1.0000 0.20961  0.07157  0.51986  Biso   1.000  Ti
  Ti12     1.0000 0.20980  0.92844  0.49997  Biso   1.000  Ti
  Ti13     1.0000 0.28990  0.56833  0.99590  Biso   1.000  Ti
  Ti14     1.0000 0.29091  0.42522  0.01547  Biso   1.000  Ti
  Ti15     1.0000 0.42855  0.70387  0.98220  Biso   1.000  Ti
  Ti16     1.0000 0.42744  0.28817  0.03395  Biso   1.000  Ti
  N1       1.0000 0.18647  0.38090  0.22925  Biso   1.000  N
  H42      1.0000 0.20444  0.40339  0.18124  Biso   1.000  H
  H43      1.0000 0.14846  0.40510  0.25977  Biso   1.000  H
  N2       1.0000 0.32284  0.87906  0.28670  Biso   1.000  N
  H44      1.0000 0.36156  0.90183  0.25595  Biso   1.000  H
  H45      1.0000 0.30504  0.90279  0.33413  Biso   1.000  H
  N3       1.0000 0.83301  0.64006  0.17295  Biso   1.000  N
  H46      1.0000 0.81402  0.61581  0.12632  Biso   1.000  H
  H47      1.0000 0.87413  0.61871  0.20127  Biso   1.000  H
  N4       1.0000 0.68670  0.12602  0.30338  Biso   1.000  N
  H48      1.0000 0.65385  0.09766  0.27021  Biso   1.000  H
  H49      1.0000 0.70743  0.10253  0.34959  Biso   1.000  H
  N5       1.0000 0.33910  0.14558  0.86649  Biso   1.000  N
  H50      1.0000 0.36491  0.16856  0.91024  Biso   1.000  H
  H51      1.0000 0.36578  0.10998  0.83489  Biso   1.000  H
  N6       1.0000 0.13405  0.66672  0.66675  Biso   1.000  N
  H52      1.0000 0.10458  0.63709  0.70218  Biso   1.000  H
  H53      1.0000 0.10957  0.69108  0.62309  Biso   1.000  H
  N7       1.0000 0.64735  0.83528  0.81527  Biso   1.000  N
  H54      1.0000 0.62397  0.81583  0.86222  Biso   1.000  H
  H55      1.0000 0.62152  0.87172  0.78406  Biso   1.000  H
  N8       1.0000 0.83993  0.34209  0.66680  Biso   1.000  N
  H56      1.0000 0.86319  0.38088  0.69709  Biso   1.000  H
  H57      1.0000 0.86527  0.32219  0.62118  Biso   1.000  H
  N9       1.0000 0.56968  0.13173  0.53540  Biso   1.000  N
  H58      1.0000 0.53985  0.17625  0.53595  Biso   1.000  H
  H59      1.0000 0.62281  0.13546  0.52674  Biso   1.000  H
  N10      1.0000 0.13585  0.56593  0.48616  Biso   1.000  N
  H60      1.0000 0.13852  0.61973  0.48786  Biso   1.000  H
  H61      1.0000 0.17893  0.53776  0.50203  Biso   1.000  H
  H62      1.0000 0.06813  0.38333  0.01379  Biso   1.000  H
  N11      1.0000 0.93086  0.36268  0.00629  Biso   1.000  N
  H63      1.0000 0.87713  0.35968  0.00402  Biso   1.000  H
  H64      1.0000 0.96046  0.31891  0.01544  Biso   1.000  H
  H65      1.0000 0.93033  0.60495  0.98194  Biso   1.000  H
  H66      1.0000 0.06306  0.60959  0.98843  Biso   1.000  H
  N12      1.0000 0.36639  0.92747  0.01825  Biso   1.000  N
  H67      1.0000 0.32206  0.95762  0.01718  Biso   1.000  H
  H68      1.0000 0.36283  0.87543  0.00394  Biso   1.000  H
