data_image0
_cell_length_a       20.7722
_cell_length_b       20.8916
_cell_length_c       20.8654
_cell_angle_alpha    90
_cell_angle_beta     90
_cell_angle_gamma    90

_symmetry_space_group_name_H-M    "P 1"
_symmetry_int_tables_number       1

loop_
  _symmetry_equiv_pos_as_xyz
  'x, y, z'

loop_
  _atom_site_label
  _atom_site_occupancy
  _atom_site_fract_x
  _atom_site_fract_y
  _atom_site_fract_z
  _atom_site_thermal_displace_type
  _atom_site_B_iso_or_equiv
  _atom_site_type_symbol
  H1       1.0000 0.51591  0.28702  0.37379  Biso   1.000  H
  C1       1.0000 0.50794  0.27596  0.32346  Biso   1.000  C
  O1       1.0000 0.50632  0.17797  0.41343  Biso   1.000  O
  C2       1.0000 0.50431  0.16108  0.35357  Biso   1.000  C
  C3       1.0000 0.50004  0.21260  0.30523  Biso   1.000  C
  C4       1.0000 0.50627  0.32546  0.27784  Biso   1.000  C
  C5       1.0000 0.49662  0.30776  0.21245  Biso   1.000  C
  C6       1.0000 0.49924  0.35431  0.15987  Biso   1.000  C
  O2       1.0000 0.50278  0.41388  0.17550  Biso   1.000  O
  H2       1.0000 0.48154  0.14533  0.22890  Biso   1.000  H
  C7       1.0000 0.48856  0.19535  0.24106  Biso   1.000  C
  O3       1.0000 0.50545  0.10423  0.33316  Biso   1.000  O
  H3       1.0000 0.47904  0.23248  0.14528  Biso   1.000  H
  C8       1.0000 0.48703  0.24316  0.19562  Biso   1.000  C
  O4       1.0000 0.49950  0.33343  0.10218  Biso   1.000  O
  Zr1      1.0000 0.50622  0.12802  0.50429  Biso   1.000  Zr
  H4       1.0000 0.60004  0.09740  0.41655  Biso   1.000  H
  O5       1.0000 0.57212  0.06989  0.44165  Biso   1.000  O
  O6       1.0000 0.44900  0.06105  0.44661  Biso   1.000  O
  H5       1.0000 0.41301  0.09768  0.59183  Biso   1.000  H
  O7       1.0000 0.43979  0.07043  0.56530  Biso   1.000  O
  O8       1.0000 0.56287  0.05971  0.56105  Biso   1.000  O
  H6       1.0000 0.37202  0.46473  0.27303  Biso   1.000  H
  C9       1.0000 0.32227  0.47873  0.26466  Biso   1.000  C
  O9       1.0000 0.41114  0.49993  0.17126  Biso   1.000  O
  C10      1.0000 0.35263  0.49812  0.15229  Biso   1.000  C
  C11      1.0000 0.30329  0.49561  0.20311  Biso   1.000  C
  C12      1.0000 0.27837  0.47988  0.31597  Biso   1.000  C
  C13      1.0000 0.21432  0.49975  0.30180  Biso   1.000  C
  C14      1.0000 0.16319  0.50338  0.34989  Biso   1.000  C
  O10      1.0000 0.17998  0.50101  0.41026  Biso   1.000  O
  H7       1.0000 0.22658  0.52566  0.13996  Biso   1.000  H
  C15      1.0000 0.23964  0.51324  0.18878  Biso   1.000  C
  O11      1.0000 0.33322  0.50031  0.09419  Biso   1.000  O
  H8       1.0000 0.14641  0.52928  0.23070  Biso   1.000  H
  C16      1.0000 0.19615  0.51529  0.23854  Biso   1.000  C
  O12      1.0000 0.10560  0.50832  0.33064  Biso   1.000  O
  Zr2      1.0000 0.50406  0.50338  0.12085  Biso   1.000  Zr
  H9       1.0000 0.63360  0.53327  0.27829  Biso   1.000  H
  C17      1.0000 0.68396  0.52227  0.26917  Biso   1.000  C
  O13      1.0000 0.59577  0.50850  0.17294  Biso   1.000  O
  C18      1.0000 0.65470  0.50823  0.15527  Biso   1.000  C
  C19      1.0000 0.70349  0.50949  0.20666  Biso   1.000  C
  C20      1.0000 0.72825  0.52089  0.32005  Biso   1.000  C
  C21      1.0000 0.79340  0.50665  0.30478  Biso   1.000  C
  C22      1.0000 0.84550  0.50606  0.35252  Biso   1.000  C
  O14      1.0000 0.83055  0.50528  0.41266  Biso   1.000  O
  H10      1.0000 0.78119  0.48514  0.14234  Biso   1.000  H
  C23      1.0000 0.76778  0.49533  0.19158  Biso   1.000  C
  O15      1.0000 0.67495  0.50519  0.09739  Biso   1.000  O
  H11      1.0000 0.86222  0.48372  0.23213  Biso   1.000  H
  C24      1.0000 0.81180  0.49423  0.24098  Biso   1.000  C
  O16      1.0000 0.90276  0.50581  0.33085  Biso   1.000  O
  Y1       1.0000 0.51038  0.00043  0.37456  Biso   1.000  Y
  O17      1.0000 0.50569  0.17756  0.59675  Biso   1.000  O
  O18      1.0000 0.50238  0.59397  0.17202  Biso   1.000  O
  O19      1.0000 0.41209  0.17456  0.49992  Biso   1.000  O
  O20      1.0000 0.60061  0.17241  0.51086  Biso   1.000  O
  O21      1.0000 0.40865  0.01096  0.33097  Biso   1.000  O
  O22      1.0000 0.61145  0.00531  0.33374  Biso   1.000  O
  O23      1.0000 0.51715  0.90200  0.33066  Biso   1.000  O
  Zr3      1.0000 0.13109  0.50335  0.50170  Biso   1.000  Zr
  Zr4      1.0000 0.88736  0.50014  0.50352  Biso   1.000  Zr
  Zr5      1.0000 0.50442  0.38047  0.00653  Biso   1.000  Zr
  Y2       1.0000 0.50077  0.99861  0.63098  Biso   1.000  Y
  Y3       1.0000 0.00229  0.50633  0.37322  Biso   1.000  Y
  Zr6      1.0000 0.62474  0.50070  0.00460  Biso   1.000  Zr
  Zr7      1.0000 0.38569  0.50166  0.00190  Biso   1.000  Zr
  Zr8      1.0000 0.62628  0.99792  0.50339  Biso   1.000  Zr
  Zr9      1.0000 0.38317  0.00004  0.50317  Biso   1.000  Zr
  O24      1.0000 0.43707  0.93577  0.43372  Biso   1.000  O
  O25      1.0000 0.43656  0.57039  0.06758  Biso   1.000  O
  O26      1.0000 0.57228  0.43417  0.07217  Biso   1.000  O
  O27      1.0000 0.55659  0.95215  0.45668  Biso   1.000  O
  O28      1.0000 0.45438  0.45205  0.05292  Biso   1.000  O
  O29      1.0000 0.55517  0.55251  0.05228  Biso   1.000  O
  H12      1.0000 0.48185  0.72200  0.36777  Biso   1.000  H
  C25      1.0000 0.49462  0.73226  0.31824  Biso   1.000  C
  O30      1.0000 0.50605  0.82836  0.41038  Biso   1.000  O
  C26      1.0000 0.51245  0.84501  0.35148  Biso   1.000  C
  C27      1.0000 0.51291  0.79397  0.30197  Biso   1.000  C
  C28      1.0000 0.49195  0.68339  0.27187  Biso   1.000  C
  C29      1.0000 0.50864  0.69993  0.20749  Biso   1.000  C
  C30      1.0000 0.50654  0.65320  0.15499  Biso   1.000  C
  H13      1.0000 0.54438  0.85880  0.22779  Biso   1.000  H
  C31      1.0000 0.52993  0.81007  0.23865  Biso   1.000  C
  H14      1.0000 0.53961  0.77291  0.14274  Biso   1.000  H
  C32      1.0000 0.52736  0.76297  0.19241  Biso   1.000  C
  O31      1.0000 0.50817  0.67257  0.09677  Biso   1.000  O
  Zr10     1.0000 0.50363  0.88265  0.50236  Biso   1.000  Zr
  H15      1.0000 0.40985  0.90877  0.40739  Biso   1.000  H
  H16      1.0000 0.59821  0.90535  0.59783  Biso   1.000  H
  O32      1.0000 0.57174  0.93323  0.57168  Biso   1.000  O
  O33      1.0000 0.45206  0.95235  0.54933  Biso   1.000  O
  O34      1.0000 0.49990  0.82755  0.59409  Biso   1.000  O
  O35      1.0000 0.59957  0.83050  0.49976  Biso   1.000  O
  O36      1.0000 0.40743  0.83290  0.50532  Biso   1.000  O
  Zr11     1.0000 0.50566  0.62120  0.00111  Biso   1.000  Zr
  H17      1.0000 0.48503  0.28665  0.64339  Biso   1.000  H
  C33      1.0000 0.49833  0.27318  0.69187  Biso   1.000  C
  C34      1.0000 0.50896  0.15906  0.65593  Biso   1.000  C
  C35      1.0000 0.51390  0.20923  0.70573  Biso   1.000  C
  H18      1.0000 0.48633  0.36640  0.73435  Biso   1.000  H
  C36      1.0000 0.49906  0.31652  0.74180  Biso   1.000  C
  C37      1.0000 0.51523  0.29791  0.80474  Biso   1.000  C
  C38      1.0000 0.51187  0.34735  0.85454  Biso   1.000  C
  O37      1.0000 0.50822  0.40550  0.83558  Biso   1.000  O
  H19      1.0000 0.54405  0.14004  0.77499  Biso   1.000  H
  C39      1.0000 0.53192  0.19004  0.76697  Biso   1.000  C
  O38      1.0000 0.50798  0.10153  0.67492  Biso   1.000  O
  C40      1.0000 0.53361  0.23361  0.81832  Biso   1.000  C
  O39      1.0000 0.51131  0.32935  0.91356  Biso   1.000  O
  H20      1.0000 0.64047  0.46121  0.73433  Biso   1.000  H
  C41      1.0000 0.69041  0.47504  0.74141  Biso   1.000  C
  O40      1.0000 0.60039  0.49236  0.83540  Biso   1.000  O
  C42      1.0000 0.65912  0.49401  0.85356  Biso   1.000  C
  C43      1.0000 0.70901  0.49277  0.80400  Biso   1.000  C
  H21      1.0000 0.72022  0.46022  0.64301  Biso   1.000  H
  C44      1.0000 0.73375  0.47480  0.69116  Biso   1.000  C
  C45      1.0000 0.79759  0.49251  0.70435  Biso   1.000  C
  C46      1.0000 0.84810  0.49245  0.65407  Biso   1.000  C
  O41      1.0000 0.83070  0.49491  0.59525  Biso   1.000  O
  C47      1.0000 0.77378  0.51073  0.81720  Biso   1.000  C
  O42      1.0000 0.67763  0.49788  0.91258  Biso   1.000  O
  H22      1.0000 0.86715  0.52257  0.77343  Biso   1.000  H
  C48      1.0000 0.81700  0.50990  0.76567  Biso   1.000  C
  O43      1.0000 0.90578  0.49111  0.67466  Biso   1.000  O
  Zr12     1.0000 0.50679  0.49791  0.88510  Biso   1.000  Zr
  H23      1.0000 0.37559  0.48276  0.72898  Biso   1.000  H
  C49      1.0000 0.32566  0.49632  0.73649  Biso   1.000  C
  O44      1.0000 0.41473  0.49998  0.83216  Biso   1.000  O
  C50      1.0000 0.35612  0.50632  0.84974  Biso   1.000  C
  C51      1.0000 0.30727  0.51260  0.79940  Biso   1.000  C
  H24      1.0000 0.29529  0.48296  0.63821  Biso   1.000  H
  C52      1.0000 0.28186  0.49621  0.68670  Biso   1.000  C
  C53      1.0000 0.21766  0.51181  0.70088  Biso   1.000  C
  C54      1.0000 0.16638  0.50535  0.65211  Biso   1.000  C
  O45      1.0000 0.18388  0.50208  0.59254  Biso   1.000  O
  C55      1.0000 0.24322  0.53292  0.81288  Biso   1.000  C
  O46      1.0000 0.33639  0.50569  0.90827  Biso   1.000  O
  H25      1.0000 0.14877  0.54275  0.77027  Biso   1.000  H
  C56      1.0000 0.19903  0.53081  0.76198  Biso   1.000  C
  O47      1.0000 0.10903  0.50306  0.67222  Biso   1.000  O
  O48      1.0000 0.50578  0.58903  0.83103  Biso   1.000  O
  O49      1.0000 0.60222  0.00547  0.67510  Biso   1.000  O
  O50      1.0000 0.40123  0.00882  0.67233  Biso   1.000  O
  O51      1.0000 0.49176  0.90023  0.67491  Biso   1.000  O
  Y4       1.0000 0.00466  0.49542  0.63144  Biso   1.000  Y
  O52      1.0000 0.57387  0.56710  0.93581  Biso   1.000  O
  O53      1.0000 0.43797  0.43213  0.93695  Biso   1.000  O
  O54      1.0000 0.55524  0.44966  0.95599  Biso   1.000  O
  O55      1.0000 0.45617  0.55029  0.95235  Biso   1.000  O
  H26      1.0000 0.49367  0.71685  0.63239  Biso   1.000  H
  C57      1.0000 0.49449  0.72805  0.68332  Biso   1.000  C
  C58      1.0000 0.49504  0.84343  0.65325  Biso   1.000  C
  C59      1.0000 0.49466  0.79166  0.70210  Biso   1.000  C
  C60      1.0000 0.49557  0.67827  0.72894  Biso   1.000  C
  C61      1.0000 0.49789  0.69579  0.79515  Biso   1.000  C
  C62      1.0000 0.50215  0.64856  0.84703  Biso   1.000  C
  H27      1.0000 0.49582  0.85926  0.78029  Biso   1.000  H
  C63      1.0000 0.49584  0.80895  0.76736  Biso   1.000  C
  H28      1.0000 0.50093  0.77209  0.86339  Biso   1.000  H
  C64      1.0000 0.49797  0.76100  0.81261  Biso   1.000  C
  O56      1.0000 0.50313  0.66906  0.90516  Biso   1.000  O
  H29      1.0000 0.40959  0.59740  0.09415  Biso   1.000  H
  H30      1.0000 0.59894  0.40790  0.09979  Biso   1.000  H
  C65      1.0000 0.27793  0.31852  0.51211  Biso   1.000  C
  O57      1.0000 0.18016  0.41091  0.49756  Biso   1.000  O
  C66      1.0000 0.16162  0.35145  0.49643  Biso   1.000  C
  C67      1.0000 0.21272  0.30307  0.49756  Biso   1.000  C
  H31      1.0000 0.37301  0.27751  0.52191  Biso   1.000  H
  C68      1.0000 0.32253  0.26812  0.51183  Biso   1.000  C
  C69      1.0000 0.30352  0.20582  0.49852  Biso   1.000  C
  C70      1.0000 0.35317  0.15516  0.49869  Biso   1.000  C
  H32      1.0000 0.14427  0.23047  0.47331  Biso   1.000  H
  C71      1.0000 0.19465  0.23936  0.48428  Biso   1.000  C
  O58      1.0000 0.10328  0.33296  0.49421  Biso   1.000  O
  H33      1.0000 0.22616  0.14108  0.47443  Biso   1.000  H
  C72      1.0000 0.23915  0.19035  0.48479  Biso   1.000  C
  O59      1.0000 0.33401  0.09734  0.49748  Biso   1.000  O
  H34      1.0000 0.28406  0.64215  0.53512  Biso   1.000  H
  C73      1.0000 0.27110  0.69081  0.52217  Biso   1.000  C
  O60      1.0000 0.17768  0.59667  0.50810  Biso   1.000  O
  C74      1.0000 0.15720  0.65499  0.50775  Biso   1.000  C
  C75      1.0000 0.20690  0.70552  0.50653  Biso   1.000  C
  H35      1.0000 0.36573  0.73160  0.53341  Biso   1.000  H
  C76      1.0000 0.31554  0.73992  0.52127  Biso   1.000  C
  C77      1.0000 0.29784  0.80298  0.50495  Biso   1.000  C
  C78      1.0000 0.34903  0.85147  0.50439  Biso   1.000  C
  H36      1.0000 0.13800  0.77613  0.47802  Biso   1.000  H
  C79      1.0000 0.18815  0.76714  0.49003  Biso   1.000  C
  O61      1.0000 0.09842  0.67245  0.50853  Biso   1.000  O
  C80      1.0000 0.23282  0.81768  0.48843  Biso   1.000  C
  O62      1.0000 0.33068  0.91070  0.50218  Biso   1.000  O
  O63      1.0000 0.33347  0.40866  0.00499  Biso   1.000  O
  O64      1.0000 0.33306  0.59553  0.99741  Biso   1.000  O
  Zr13     1.0000 0.00108  0.62247  0.50366  Biso   1.000  Zr
  Zr14     1.0000 0.00344  0.37950  0.50227  Biso   1.000  Zr
  O65      1.0000 0.07505  0.43585  0.56400  Biso   1.000  O
  O66      1.0000 0.07261  0.56909  0.44024  Biso   1.000  O
  O67      1.0000 0.06377  0.44608  0.44506  Biso   1.000  O
  O68      1.0000 0.06384  0.55832  0.56000  Biso   1.000  O
  H37      1.0000 0.41119  0.40558  0.90971  Biso   1.000  H
  H38      1.0000 0.60096  0.59331  0.90857  Biso   1.000  H
  H39      1.0000 0.72213  0.63747  0.48099  Biso   1.000  H
  C81      1.0000 0.73547  0.68674  0.49070  Biso   1.000  C
  O69      1.0000 0.83201  0.59347  0.50271  Biso   1.000  O
  C82      1.0000 0.85026  0.65162  0.50294  Biso   1.000  C
  C83      1.0000 0.80005  0.70195  0.50370  Biso   1.000  C
  H40      1.0000 0.64048  0.72710  0.47964  Biso   1.000  H
  C84      1.0000 0.69096  0.73584  0.49025  Biso   1.000  C
  C85      1.0000 0.70899  0.79954  0.50327  Biso   1.000  C
  C86      1.0000 0.65806  0.84838  0.50183  Biso   1.000  C
  H41      1.0000 0.86927  0.77369  0.52758  Biso   1.000  H
  C87      1.0000 0.81881  0.76426  0.51743  Biso   1.000  C
  O70      1.0000 0.90877  0.67158  0.50328  Biso   1.000  O
  C88      1.0000 0.77418  0.81470  0.51835  Biso   1.000  C
  O71      1.0000 0.67731  0.90735  0.50340  Biso   1.000  O
  C89      1.0000 0.73532  0.31645  0.51711  Biso   1.000  C
  O72      1.0000 0.83585  0.40666  0.50507  Biso   1.000  O
  C90      1.0000 0.85288  0.34765  0.50832  Biso   1.000  C
  C91      1.0000 0.80178  0.29939  0.51377  Biso   1.000  C
  H42      1.0000 0.63902  0.27708  0.51853  Biso   1.000  H
  C92      1.0000 0.69020  0.26635  0.51674  Biso   1.000  C
  C93      1.0000 0.70963  0.20284  0.51378  Biso   1.000  C
  C94      1.0000 0.65956  0.15265  0.51095  Biso   1.000  C
  H43      1.0000 0.87136  0.22405  0.51122  Biso   1.000  H
  C95      1.0000 0.82013  0.23440  0.51272  Biso   1.000  C
  O73      1.0000 0.91143  0.32792  0.50533  Biso   1.000  O
  H44      1.0000 0.78864  0.13562  0.51087  Biso   1.000  H
  C96      1.0000 0.77514  0.18579  0.51262  Biso   1.000  C
  O74      1.0000 0.67782  0.09455  0.50871  Biso   1.000  O
  O75      1.0000 0.67759  0.59455  0.00547  Biso   1.000  O
  O76      1.0000 0.67471  0.40690  0.00045  Biso   1.000  O
  O77      1.0000 0.93809  0.56703  0.57230  Biso   1.000  O
  O78      1.0000 0.93878  0.43358  0.43405  Biso   1.000  O
  O79      1.0000 0.95532  0.55295  0.45646  Biso   1.000  O
  O80      1.0000 0.95629  0.44753  0.55005  Biso   1.000  O
  H45      1.0000 0.10316  0.40862  0.58918  Biso   1.000  H
  H46      1.0000 0.09981  0.59670  0.41447  Biso   1.000  H
  O81      1.0000 0.00609  0.32812  0.40843  Biso   1.000  O
  O82      1.0000 0.00861  0.32297  0.59018  Biso   1.000  O
  H47      1.0000 0.91132  0.40645  0.40810  Biso   1.000  H
  H48      1.0000 0.91037  0.59295  0.59918  Biso   1.000  H
  O83      1.0000 0.00556  0.67371  0.59821  Biso   1.000  O
  O84      1.0000 0.00272  0.68046  0.41677  Biso   1.000  O
  O85      1.0000 0.01691  0.40332  0.33048  Biso   1.000  O
  O86      1.0000 0.99875  0.60880  0.33533  Biso   1.000  O
  O87      1.0000 0.01387  0.59715  0.67536  Biso   1.000  O
  O88      1.0000 0.00801  0.39472  0.67205  Biso   1.000  O
  O89      1.0000 0.40978  0.33059  0.00861  Biso   1.000  O
  O90      1.0000 0.59870  0.32842  0.00601  Biso   1.000  O
  O91      1.0000 0.59935  0.67127  0.00521  Biso   1.000  O
  O92      1.0000 0.41158  0.67173  0.99419  Biso   1.000  O
  O93      1.0000 0.33096  0.00578  0.40790  Biso   1.000  O
  O94      1.0000 0.32734  0.00234  0.59263  Biso   1.000  O
  O95      1.0000 0.67934  0.00175  0.59761  Biso   1.000  O
  O96      1.0000 0.68303  0.99766  0.41557  Biso   1.000  O
  C97      1.0000 0.30713  0.02325  0.76568  Biso   1.000  C
  C98      1.0000 0.34325  0.00497  0.65224  Biso   1.000  C
  C99      1.0000 0.29304  0.00389  0.70150  Biso   1.000  C
  H49      1.0000 0.26600  0.03089  0.86047  Biso   1.000  H
  C100     1.0000 0.25743  0.01766  0.81080  Biso   1.000  C
  C101     1.0000 0.19722  0.99473  0.79355  Biso   1.000  C
  C102     1.0000 0.14830  0.99072  0.84478  Biso   1.000  C
  O97      1.0000 0.16937  0.99187  0.90246  Biso   1.000  O
  H50      1.0000 0.22343  0.96741  0.63539  Biso   1.000  H
  C103     1.0000 0.23121  0.98167  0.68494  Biso   1.000  C
  H51      1.0000 0.13519  0.95880  0.71846  Biso   1.000  H
  C104     1.0000 0.18278  0.97690  0.73016  Biso   1.000  C
  O98      1.0000 0.08934  0.98831  0.82761  Biso   1.000  O
  H52      1.0000 0.63814  0.97320  0.77621  Biso   1.000  H
  C105     1.0000 0.68877  0.98411  0.76884  Biso   1.000  C
  C106     1.0000 0.66035  0.00198  0.65639  Biso   1.000  C
  C107     1.0000 0.70969  0.99928  0.70741  Biso   1.000  C
  C108     1.0000 0.73130  0.98409  0.82115  Biso   1.000  C
  C109     1.0000 0.79666  0.00005  0.80812  Biso   1.000  C
  C110     1.0000 0.84631  0.99937  0.85791  Biso   1.000  C
  O99      1.0000 0.82862  0.99750  0.91717  Biso   1.000  O
  H53      1.0000 0.78868  0.02761  0.64617  Biso   1.000  H
  C111     1.0000 0.77419  0.01478  0.69451  Biso   1.000  C
  H54      1.0000 0.86711  0.02746  0.73842  Biso   1.000  H
  C112     1.0000 0.81676  0.01507  0.74530  Biso   1.000  C
  O100     1.0000 0.90478  0.99940  0.83869  Biso   1.000  O
  Zr15     1.0000 0.12421  0.99949  0.99724  Biso   1.000  Zr
  Zr16     1.0000 0.88543  0.00219  0.00757  Biso   1.000  Zr
  Zr17     1.0000 0.99924  0.99508  0.88412  Biso   1.000  Zr
  H55      1.0000 0.65441  0.03469  0.23772  Biso   1.000  H
  C113     1.0000 0.70401  0.02034  0.24576  Biso   1.000  C
  C114     1.0000 0.66843  0.00106  0.35521  Biso   1.000  C
  C115     1.0000 0.72097  0.00118  0.30826  Biso   1.000  C
  H56      1.0000 0.73625  0.03623  0.14860  Biso   1.000  H
  C116     1.0000 0.74842  0.02093  0.19681  Biso   1.000  C
  C117     1.0000 0.81176  0.00215  0.21107  Biso   1.000  C
  C118     1.0000 0.86026  0.00388  0.15939  Biso   1.000  C
  O101     1.0000 0.83843  0.00504  0.10197  Biso   1.000  O
  C119     1.0000 0.78506  0.98183  0.32278  Biso   1.000  C
  H57      1.0000 0.87974  0.96919  0.28063  Biso   1.000  H
  C120     1.0000 0.82998  0.98313  0.27225  Biso   1.000  C
  O102     1.0000 0.91936  0.00547  0.17591  Biso   1.000  O
  H58      1.0000 0.37380  0.99246  0.22709  Biso   1.000  H
  C121     1.0000 0.32259  0.99926  0.23533  Biso   1.000  C
  C122     1.0000 0.35033  0.00779  0.34925  Biso   1.000  C
  C123     1.0000 0.30108  0.00768  0.29782  Biso   1.000  C
  C124     1.0000 0.27982  0.00015  0.18316  Biso   1.000  C
  C125     1.0000 0.21341  0.00999  0.19711  Biso   1.000  C
  C126     1.0000 0.16347  0.00861  0.14749  Biso   1.000  C
  O103     1.0000 0.18061  0.00342  0.08821  Biso   1.000  O
  H59      1.0000 0.22038  0.02511  0.36086  Biso   1.000  H
  C127     1.0000 0.23563  0.01770  0.31163  Biso   1.000  C
  H60      1.0000 0.14179  0.02689  0.26874  Biso   1.000  H
  C128     1.0000 0.19288  0.01894  0.26100  Biso   1.000  C
  O104     1.0000 0.10500  0.01098  0.16670  Biso   1.000  O
  Zr18     1.0000 0.01046  0.00631  0.12099  Biso   1.000  Zr
  H61      1.0000 0.27503  0.86165  0.95523  Biso   1.000  H
  C129     1.0000 0.26615  0.81259  0.97034  Biso   1.000  C
  O105     1.0000 0.17447  0.90481  0.99482  Biso   1.000  O
  C130     1.0000 0.15493  0.84677  0.99646  Biso   1.000  C
  C131     1.0000 0.20509  0.79613  0.99199  Biso   1.000  C
  C132     1.0000 0.31662  0.76753  0.96884  Biso   1.000  C
  C133     1.0000 0.30275  0.70428  0.99068  Biso   1.000  C
  C134     1.0000 0.35220  0.65386  0.99387  Biso   1.000  C
  H62      1.0000 0.14304  0.72182  0.02917  Biso   1.000  H
  C135     1.0000 0.19100  0.73330  0.01195  Biso   1.000  C
  O106     1.0000 0.09656  0.82809  0.00308  Biso   1.000  O
  H63      1.0000 0.23173  0.63981  0.02752  Biso   1.000  H
  C136     1.0000 0.23998  0.68851  0.01106  Biso   1.000  C
  H64      1.0000 0.28849  0.13618  0.01211  Biso   1.000  H
  C137     1.0000 0.27416  0.18603  0.00835  Biso   1.000  C
  O107     1.0000 0.17781  0.09251  0.99458  Biso   1.000  O
  C138     1.0000 0.15867  0.15073  0.99644  Biso   1.000  C
  C139     1.0000 0.20859  0.20167  0.00085  Biso   1.000  C
  H65      1.0000 0.36959  0.22540  0.01644  Biso   1.000  H
  C140     1.0000 0.31850  0.23532  0.01120  Biso   1.000  C
  C141     1.0000 0.29991  0.30025  0.00704  Biso   1.000  C
  C142     1.0000 0.35087  0.34926  0.00737  Biso   1.000  C
  H66      1.0000 0.13778  0.27533  0.99225  Biso   1.000  H
  C143     1.0000 0.18885  0.26508  0.99739  Biso   1.000  C
  O108     1.0000 0.09994  0.16945  0.99396  Biso   1.000  O
  C144     1.0000 0.23322  0.31600  0.00064  Biso   1.000  C
  Zr19     1.0000 0.00549  0.12093  0.99678  Biso   1.000  Zr
  Zr20     1.0000 0.00328  0.88143  0.00786  Biso   1.000  Zr
  O109     1.0000 0.07490  0.93543  0.06937  Biso   1.000  O
  O110     1.0000 0.06989  0.06439  0.92950  Biso   1.000  O
  O111     1.0000 0.05204  0.94776  0.95304  Biso   1.000  O
  O112     1.0000 0.05744  0.05262  0.04707  Biso   1.000  O
  H67      1.0000 0.72561  0.13774  0.02149  Biso   1.000  H
  C145     1.0000 0.73762  0.18686  0.00941  Biso   1.000  C
  O113     1.0000 0.83361  0.09481  0.00238  Biso   1.000  O
  C146     1.0000 0.85257  0.15285  0.99654  Biso   1.000  C
  C147     1.0000 0.80161  0.20275  0.99367  Biso   1.000  C
  H68      1.0000 0.64273  0.22548  0.02415  Biso   1.000  H
  C148     1.0000 0.69229  0.23522  0.01049  Biso   1.000  C
  C149     1.0000 0.70835  0.29916  0.99567  Biso   1.000  C
  C150     1.0000 0.65729  0.34768  0.00064  Biso   1.000  C
  H69      1.0000 0.86853  0.27532  0.96592  Biso   1.000  H
  C151     1.0000 0.81857  0.26498  0.97763  Biso   1.000  C
  O114     1.0000 0.91114  0.17182  0.99458  Biso   1.000  O
  C152     1.0000 0.77282  0.31488  0.97751  Biso   1.000  C
  C153     1.0000 0.73335  0.81637  0.02865  Biso   1.000  C
  O115     1.0000 0.83335  0.90899  0.01946  Biso   1.000  O
  C154     1.0000 0.85079  0.84979  0.01883  Biso   1.000  C
  C155     1.0000 0.79967  0.80082  0.02012  Biso   1.000  C
  H70      1.0000 0.63729  0.77617  0.02951  Biso   1.000  H
  C156     1.0000 0.68845  0.76606  0.02494  Biso   1.000  C
  C157     1.0000 0.70790  0.70320  0.01469  Biso   1.000  C
  C158     1.0000 0.65804  0.65256  0.00845  Biso   1.000  C
  H71      1.0000 0.86930  0.72689  0.00548  Biso   1.000  H
  C159     1.0000 0.81820  0.73651  0.01110  Biso   1.000  C
  O116     1.0000 0.90930  0.83060  0.01549  Biso   1.000  O
  H72      1.0000 0.78765  0.63801  0.00207  Biso   1.000  H
  C160     1.0000 0.77351  0.68759  0.00876  Biso   1.000  C
  O117     1.0000 0.94076  0.07238  0.06904  Biso   1.000  O
  O118     1.0000 0.93329  0.93068  0.94172  Biso   1.000  O
  O119     1.0000 0.95286  0.04915  0.95295  Biso   1.000  O
  O120     1.0000 0.95663  0.95373  0.05633  Biso   1.000  O
  H73      1.0000 0.10287  0.90977  0.09625  Biso   1.000  H
  H74      1.0000 0.09568  0.09037  0.90082  Biso   1.000  H
  O121     1.0000 0.00268  0.82691  0.91560  Biso   1.000  O
  O122     1.0000 0.00305  0.83603  0.10290  Biso   1.000  O
  H75      1.0000 0.90511  0.90332  0.91681  Biso   1.000  H
  H76      1.0000 0.91486  0.10022  0.09582  Biso   1.000  H
  O123     1.0000 0.01298  0.17638  0.08921  Biso   1.000  O
  O124     1.0000 0.99777  0.16554  0.90032  Biso   1.000  O
  O125     1.0000 0.99709  0.90154  0.83640  Biso   1.000  O
  O126     1.0000 0.99751  0.08421  0.82770  Biso   1.000  O
  O127     1.0000 0.01450  0.09969  0.16687  Biso   1.000  O
  O128     1.0000 0.00883  0.91607  0.17710  Biso   1.000  O
  H77      1.0000 0.97556  0.26571  0.85731  Biso   1.000  H
  C161     1.0000 0.98371  0.25515  0.80697  Biso   1.000  C
  C162     1.0000 0.99573  0.14402  0.84280  Biso   1.000  C
  C163     1.0000 0.99322  0.19052  0.79014  Biso   1.000  C
  H78      1.0000 0.97927  0.35311  0.77406  Biso   1.000  H
  C164     1.0000 0.98594  0.30309  0.76174  Biso   1.000  C
  C165     1.0000 0.99831  0.28618  0.69759  Biso   1.000  C
  C166     1.0000 0.00500  0.33827  0.64995  Biso   1.000  C
  C167     1.0000 0.00339  0.17304  0.72475  Biso   1.000  C
  H79      1.0000 0.01500  0.21190  0.62905  Biso   1.000  H
  C168     1.0000 0.00601  0.22282  0.67925  Biso   1.000  C
  C169     1.0000 0.00604  0.72710  0.82238  Biso   1.000  C
  C170     1.0000 0.00037  0.84363  0.85614  Biso   1.000  C
  C171     1.0000 0.00112  0.79334  0.80694  Biso   1.000  C
  H80      1.0000 0.01223  0.63264  0.78027  Biso   1.000  H
  C172     1.0000 0.00816  0.68370  0.77104  Biso   1.000  C
  C173     1.0000 0.00520  0.70438  0.70779  Biso   1.000  C
  C174     1.0000 0.00819  0.65491  0.65689  Biso   1.000  C
  H81      1.0000 0.99418  0.86417  0.73335  Biso   1.000  H
  C175     1.0000 0.99785  0.81308  0.74234  Biso   1.000  C
  H82      1.0000 0.99779  0.78431  0.64262  Biso   1.000  H
  C176     1.0000 0.99974  0.76963  0.69250  Biso   1.000  C
  H83      1.0000 0.03253  0.28672  0.13612  Biso   1.000  H
  C177     1.0000 0.02396  0.27183  0.18525  Biso   1.000  C
  C178     1.0000 0.01415  0.15789  0.14761  Biso   1.000  C
  C179     1.0000 0.01371  0.20681  0.19916  Biso   1.000  C
  H84      1.0000 0.03140  0.36552  0.22757  Biso   1.000  H
  C180     1.0000 0.02327  0.31478  0.23557  Biso   1.000  C
  C181     1.0000 0.01217  0.29506  0.29936  Biso   1.000  C
  C182     1.0000 0.01150  0.34539  0.34867  Biso   1.000  C
  H85      1.0000 0.99531  0.13528  0.27015  Biso   1.000  H
  C183     1.0000 0.00279  0.18606  0.26158  Biso   1.000  C
  C184     1.0000 0.00152  0.22915  0.31331  Biso   1.000  C
  H86      1.0000 0.98516  0.73116  0.14605  Biso   1.000  H
  C185     1.0000 0.99148  0.74449  0.19593  Biso   1.000  C
  C186     1.0000 0.00398  0.85745  0.16038  Biso   1.000  C
  C187     1.0000 0.00054  0.80911  0.21213  Biso   1.000  C
  H87      1.0000 0.98449  0.64936  0.23479  Biso   1.000  H
  C188     1.0000 0.99118  0.69997  0.24466  Biso   1.000  C
  C189     1.0000 0.99950  0.71806  0.30921  Biso   1.000  C
  C190     1.0000 0.00004  0.66566  0.35629  Biso   1.000  C
  H88      1.0000 0.01512  0.87908  0.28553  Biso   1.000  H
  C191     1.0000 0.00789  0.82849  0.27546  Biso   1.000  C
  C192     1.0000 0.00748  0.78370  0.32573  Biso   1.000  C
  N1       1.0000 0.01774  0.80458  0.38784  Biso   1.000  N
  H89      1.0000 0.00614  0.77216  0.42245  Biso   1.000  H
  H90      1.0000 0.00634  0.85092  0.39667  Biso   1.000  H
  N2       1.0000 0.01032  0.11085  0.70400  Biso   1.000  N
  H91      1.0000 0.03386  0.10451  0.66194  Biso   1.000  H
  H92      1.0000 0.01747  0.07751  0.73884  Biso   1.000  H
  N3       1.0000 0.51295  0.38782  0.29889  Biso   1.000  N
  H93      1.0000 0.53773  0.39345  0.34039  Biso   1.000  H
  H94      1.0000 0.52183  0.42053  0.26381  Biso   1.000  H
  N4       1.0000 0.49292  0.61618  0.70777  Biso   1.000  N
  H95      1.0000 0.50393  0.60796  0.66123  Biso   1.000  H
  H96      1.0000 0.50259  0.58165  0.74072  Biso   1.000  H
  N5       1.0000 0.80479  0.96332  0.38299  Biso   1.000  N
  H97      1.0000 0.84294  0.93318  0.38526  Biso   1.000  H
  H98      1.0000 0.76970  0.95607  0.41622  Biso   1.000  H
  N6       1.0000 0.79664  0.87555  0.53225  Biso   1.000  N
  H99      1.0000 0.76237  0.90888  0.54226  Biso   1.000  H
  H100     1.0000 0.83650  0.87701  0.56033  Biso   1.000  H
  N7       1.0000 0.79674  0.52750  0.87719  Biso   1.000  N
  H101     1.0000 0.83578  0.55669  0.87721  Biso   1.000  H
  H102     1.0000 0.76275  0.53691  0.91100  Biso   1.000  H
  N8       1.0000 0.79278  0.37539  0.96156  Biso   1.000  N
  H103     1.0000 0.75869  0.40976  0.95593  Biso   1.000  H
  H104     1.0000 0.83355  0.37962  0.93528  Biso   1.000  H
  N9       1.0000 0.70792  0.97023  0.88120  Biso   1.000  N
  H105     1.0000 0.74062  0.96486  0.91703  Biso   1.000  H
  H106     1.0000 0.66726  0.94358  0.88376  Biso   1.000  H
  N10      1.0000 0.71342  0.37834  0.52213  Biso   1.000  N
  H107     1.0000 0.66692  0.38626  0.50988  Biso   1.000  H
  H108     1.0000 0.74615  0.41304  0.51161  Biso   1.000  H
  N11      1.0000 0.70681  0.53184  0.38191  Biso   1.000  N
  H109     1.0000 0.74243  0.53859  0.41485  Biso   1.000  H
  H110     1.0000 0.66794  0.56101  0.38567  Biso   1.000  H
  N12      1.0000 0.71080  0.87794  0.03804  Biso   1.000  N
  H111     1.0000 0.66807  0.88139  0.06132  Biso   1.000  H
  H112     1.0000 0.74485  0.91087  0.05013  Biso   1.000  H
  N13      1.0000 0.30379  0.99321  0.12220  Biso   1.000  N
  H113     1.0000 0.27084  0.98654  0.08676  Biso   1.000  H
  H114     1.0000 0.34749  0.97221  0.11762  Biso   1.000  H
  N14      1.0000 0.21010  0.37743  0.99865  Biso   1.000  N
  H115     1.0000 0.16512  0.38419  0.98127  Biso   1.000  H
  H116     1.0000 0.24308  0.41296  0.99347  Biso   1.000  H
  N15      1.0000 0.55097  0.21215  0.87811  Biso   1.000  N
  H117     1.0000 0.55693  0.24554  0.91309  Biso   1.000  H
  H118     1.0000 0.57918  0.17262  0.88009  Biso   1.000  H
  N16      1.0000 0.47406  0.62290  0.29175  Biso   1.000  N
  H119     1.0000 0.44560  0.62104  0.33120  Biso   1.000  H
  H120     1.0000 0.46461  0.59054  0.25661  Biso   1.000  H
  N17      1.0000 0.29964  0.46328  0.37613  Biso   1.000  N
  H121     1.0000 0.33863  0.43417  0.37838  Biso   1.000  H
  H122     1.0000 0.26588  0.45711  0.41078  Biso   1.000  H
  N18      1.0000 0.30030  0.37961  0.52500  Biso   1.000  N
  H123     1.0000 0.26615  0.41291  0.53532  Biso   1.000  H
  H124     1.0000 0.34108  0.38160  0.55168  Biso   1.000  H
  N19      1.0000 0.36568  0.04580  0.78661  Biso   1.000  N
  H125     1.0000 0.40029  0.05363  0.75321  Biso   1.000  H
  H126     1.0000 0.36566  0.07328  0.82661  Biso   1.000  H
  N20      1.0000 0.37632  0.78685  0.94789  Biso   1.000  N
  H127     1.0000 0.41049  0.75240  0.94258  Biso   1.000  H
  H128     1.0000 0.37756  0.82415  0.91686  Biso   1.000  H
  N21      1.0000 0.22210  0.55221  0.87248  Biso   1.000  N
  H129     1.0000 0.25620  0.55938  0.90675  Biso   1.000  H
  H130     1.0000 0.18435  0.58296  0.87279  Biso   1.000  H
  N22      1.0000 0.21104  0.87774  0.47216  Biso   1.000  N
  H131     1.0000 0.17067  0.87955  0.44494  Biso   1.000  H
  H132     1.0000 0.24480  0.91223  0.46512  Biso   1.000  H
  N23      1.0000 0.00705  0.70397  0.88418  Biso   1.000  N
  H133     1.0000 0.01557  0.73706  0.91902  Biso   1.000  H
  H134     1.0000 0.02516  0.65941  0.89048  Biso   1.000  H
  N24      1.0000 0.99195  0.20567  0.37427  Biso   1.000  N
  H135     1.0000 0.96897  0.16303  0.37782  Biso   1.000  H
  H136     1.0000 0.98329  0.23892  0.40884  Biso   1.000  H
  H137     1.0000 0.58978  0.08230  0.59181  Biso   1.000  H
  H138     1.0000 0.42271  0.08425  0.41574  Biso   1.000  H
  H139     1.0000 0.08667  0.58528  0.59052  Biso   1.000  H
  H140     1.0000 0.08664  0.41972  0.41399  Biso   1.000  H
