data_image0
_cell_length_a       20.7722
_cell_length_b       20.8916
_cell_length_c       20.8654
_cell_angle_alpha    90
_cell_angle_beta     90
_cell_angle_gamma    90

_symmetry_space_group_name_H-M    "P 1"
_symmetry_int_tables_number       1

loop_
  _symmetry_equiv_pos_as_xyz
  'x, y, z'

loop_
  _atom_site_label
  _atom_site_occupancy
  _atom_site_fract_x
  _atom_site_fract_y
  _atom_site_fract_z
  _atom_site_thermal_displace_type
  _atom_site_B_iso_or_equiv
  _atom_site_type_symbol
  H1       1.0000 0.49562  0.27787  0.36927  Biso   1.000  H
  C1       1.0000 0.49348  0.26714  0.31830  Biso   1.000  C
  O1       1.0000 0.49729  0.17145  0.40767  Biso   1.000  O
  C2       1.0000 0.49633  0.15275  0.34918  Biso   1.000  C
  C3       1.0000 0.49232  0.20345  0.29912  Biso   1.000  C
  C4       1.0000 0.49224  0.31748  0.27350  Biso   1.000  C
  C5       1.0000 0.49011  0.30120  0.20706  Biso   1.000  C
  C6       1.0000 0.49342  0.34971  0.15574  Biso   1.000  C
  O2       1.0000 0.49676  0.40917  0.17261  Biso   1.000  O
  H2       1.0000 0.48688  0.13723  0.21973  Biso   1.000  H
  C7       1.0000 0.48853  0.18727  0.23371  Biso   1.000  C
  O3       1.0000 0.49982  0.09465  0.33019  Biso   1.000  O
  H3       1.0000 0.48525  0.22567  0.13798  Biso   1.000  H
  C8       1.0000 0.48746  0.23612  0.18896  Biso   1.000  C
  O4       1.0000 0.49450  0.33061  0.09738  Biso   1.000  O
  Zr1      1.0000 0.50020  0.12142  0.50117  Biso   1.000  Zr
  H4       1.0000 0.59616  0.09487  0.40786  Biso   1.000  H
  O5       1.0000 0.56904  0.06841  0.43488  Biso   1.000  O
  O6       1.0000 0.45071  0.05089  0.45110  Biso   1.000  O
  H5       1.0000 0.40461  0.09510  0.59437  Biso   1.000  H
  O7       1.0000 0.43170  0.06862  0.56737  Biso   1.000  O
  O8       1.0000 0.54987  0.05125  0.55151  Biso   1.000  O
  H6       1.0000 0.36475  0.47138  0.27832  Biso   1.000  H
  C9       1.0000 0.31479  0.48357  0.26844  Biso   1.000  C
  O9       1.0000 0.40566  0.49965  0.17215  Biso   1.000  O
  C10      1.0000 0.34654  0.49846  0.15393  Biso   1.000  C
  C11      1.0000 0.29662  0.49749  0.20572  Biso   1.000  C
  C12      1.0000 0.27014  0.48457  0.31963  Biso   1.000  C
  C13      1.0000 0.20486  0.50076  0.30541  Biso   1.000  C
  C14      1.0000 0.15280  0.50235  0.35401  Biso   1.000  C
  O10      1.0000 0.16893  0.50036  0.41412  Biso   1.000  O
  H7       1.0000 0.21806  0.52279  0.14256  Biso   1.000  H
  C15      1.0000 0.23197  0.51238  0.19165  Biso   1.000  C
  O11      1.0000 0.32758  0.49969  0.09557  Biso   1.000  O
  H8       1.0000 0.13758  0.52570  0.23172  Biso   1.000  H
  C16      1.0000 0.18765  0.51397  0.24120  Biso   1.000  C
  O12      1.0000 0.09489  0.50554  0.33318  Biso   1.000  O
  Zr2      1.0000 0.49935  0.50157  0.12016  Biso   1.000  Zr
  H9       1.0000 0.63377  0.52860  0.28120  Biso   1.000  H
  C17      1.0000 0.68399  0.51779  0.27093  Biso   1.000  C
  O13      1.0000 0.59295  0.50519  0.17346  Biso   1.000  O
  C18      1.0000 0.65216  0.50451  0.15589  Biso   1.000  C
  C19      1.0000 0.70204  0.50509  0.20782  Biso   1.000  C
  C20      1.0000 0.72908  0.51718  0.32160  Biso   1.000  C
  C21      1.0000 0.79463  0.50323  0.30674  Biso   1.000  C
  C22      1.0000 0.84731  0.50277  0.35495  Biso   1.000  C
  O14      1.0000 0.83140  0.50259  0.41514  Biso   1.000  O
  H10      1.0000 0.78050  0.48137  0.14403  Biso   1.000  H
  C23      1.0000 0.76681  0.49148  0.19324  Biso   1.000  C
  O15      1.0000 0.67183  0.50212  0.09773  Biso   1.000  O
  H11      1.0000 0.86190  0.48023  0.23237  Biso   1.000  H
  C24      1.0000 0.81165  0.49074  0.24238  Biso   1.000  C
  O16      1.0000 0.90500  0.50256  0.33351  Biso   1.000  O
  Zr3      1.0000 0.50208  0.00114  0.38185  Biso   1.000  Zr
  O17      1.0000 0.50276  0.17196  0.59521  Biso   1.000  O
  O18      1.0000 0.50020  0.59454  0.17027  Biso   1.000  O
  O19      1.0000 0.40649  0.17304  0.49948  Biso   1.000  O
  O20      1.0000 0.59404  0.17305  0.50329  Biso   1.000  O
  O21      1.0000 0.40833  0.00498  0.33059  Biso   1.000  O
  O22      1.0000 0.59758  0.99957  0.33253  Biso   1.000  O
  O23      1.0000 0.50579  0.90818  0.32974  Biso   1.000  O
  W1       1.0000 0.10584  0.50015  0.49938  Biso   1.000  W
  W2       1.0000 0.89565  0.49971  0.50034  Biso   1.000  W
  Zr4      1.0000 0.49919  0.38044  0.00285  Biso   1.000  Zr
  Zr5      1.0000 0.49879  0.00082  0.61990  Biso   1.000  Zr
  Zr6      1.0000 0.00034  0.50275  0.37942  Biso   1.000  Zr
  Zr7      1.0000 0.62036  0.49966  0.00207  Biso   1.000  Zr
  Zr8      1.0000 0.38049  0.50141  0.99982  Biso   1.000  Zr
  Zr9      1.0000 0.61995  0.00121  0.50317  Biso   1.000  Zr
  Zr10     1.0000 0.37982  0.00126  0.49976  Biso   1.000  Zr
  O24      1.0000 0.43316  0.93350  0.43298  Biso   1.000  O
  O25      1.0000 0.43212  0.56901  0.06661  Biso   1.000  O
  O26      1.0000 0.56709  0.43329  0.06957  Biso   1.000  O
  O27      1.0000 0.55055  0.95095  0.45267  Biso   1.000  O
  O28      1.0000 0.44935  0.45159  0.05072  Biso   1.000  O
  O29      1.0000 0.55021  0.55029  0.05046  Biso   1.000  O
  H12      1.0000 0.49074  0.72529  0.36635  Biso   1.000  H
  C25      1.0000 0.49750  0.73612  0.31580  Biso   1.000  C
  O30      1.0000 0.50450  0.83077  0.40667  Biso   1.000  O
  C26      1.0000 0.50613  0.84980  0.34831  Biso   1.000  C
  C27      1.0000 0.50699  0.79940  0.29766  Biso   1.000  C
  C28      1.0000 0.49624  0.68609  0.27056  Biso   1.000  C
  C29      1.0000 0.50524  0.70226  0.20460  Biso   1.000  C
  C30      1.0000 0.50291  0.65389  0.15295  Biso   1.000  C
  H13      1.0000 0.52347  0.86520  0.21943  Biso   1.000  H
  C31      1.0000 0.51601  0.81547  0.23268  Biso   1.000  C
  H14      1.0000 0.52134  0.77735  0.13683  Biso   1.000  H
  C32      1.0000 0.51501  0.76695  0.18750  Biso   1.000  C
  O31      1.0000 0.50266  0.67254  0.09444  Biso   1.000  O
  Zr11     1.0000 0.49968  0.88035  0.50094  Biso   1.000  Zr
  H15      1.0000 0.40604  0.90714  0.40585  Biso   1.000  H
  H16      1.0000 0.59313  0.90668  0.59689  Biso   1.000  H
  O32      1.0000 0.56668  0.93318  0.56928  Biso   1.000  O
  O33      1.0000 0.44929  0.95084  0.54985  Biso   1.000  O
  O34      1.0000 0.49443  0.83043  0.59494  Biso   1.000  O
  O35      1.0000 0.59503  0.82812  0.50003  Biso   1.000  O
  O36      1.0000 0.40504  0.82824  0.50235  Biso   1.000  O
  Zr12     1.0000 0.50092  0.61991  0.99972  Biso   1.000  Zr
  H17      1.0000 0.48593  0.28029  0.63938  Biso   1.000  H
  C33      1.0000 0.49666  0.26737  0.68864  Biso   1.000  C
  C34      1.0000 0.50509  0.15281  0.65343  Biso   1.000  C
  C35      1.0000 0.50943  0.20297  0.70403  Biso   1.000  C
  H18      1.0000 0.48662  0.36225  0.72773  Biso   1.000  H
  C36      1.0000 0.49711  0.31219  0.73738  Biso   1.000  C
  C37      1.0000 0.51032  0.29525  0.80152  Biso   1.000  C
  C38      1.0000 0.50698  0.34625  0.85032  Biso   1.000  C
  O37      1.0000 0.50401  0.40447  0.83090  Biso   1.000  O
  H19      1.0000 0.53462  0.13517  0.77666  Biso   1.000  H
  C39      1.0000 0.52432  0.18521  0.76652  Biso   1.000  C
  O38      1.0000 0.50247  0.09440  0.67210  Biso   1.000  O
  C40      1.0000 0.52577  0.23038  0.81679  Biso   1.000  C
  O39      1.0000 0.50577  0.32927  0.90979  Biso   1.000  O
  H20      1.0000 0.63814  0.47352  0.72398  Biso   1.000  H
  C41      1.0000 0.68867  0.48375  0.73298  Biso   1.000  C
  O40      1.0000 0.59722  0.49472  0.83006  Biso   1.000  O
  C42      1.0000 0.65633  0.49598  0.84765  Biso   1.000  C
  C43      1.0000 0.70682  0.49604  0.79715  Biso   1.000  C
  H21      1.0000 0.71789  0.47379  0.63393  Biso   1.000  H
  C44      1.0000 0.73264  0.48417  0.68282  Biso   1.000  C
  C45      1.0000 0.79776  0.49730  0.69638  Biso   1.000  C
  C46      1.0000 0.84914  0.49721  0.64576  Biso   1.000  C
  O41      1.0000 0.83164  0.49750  0.58668  Biso   1.000  O
  C47      1.0000 0.77278  0.50967  0.81062  Biso   1.000  C
  O42      1.0000 0.67460  0.49811  0.90699  Biso   1.000  O
  H22      1.0000 0.86724  0.51970  0.76871  Biso   1.000  H
  C48      1.0000 0.81673  0.50987  0.75921  Biso   1.000  C
  O43      1.0000 0.90709  0.49690  0.66666  Biso   1.000  O
  Zr13     1.0000 0.50199  0.49839  0.88079  Biso   1.000  Zr
  H23      1.0000 0.36653  0.48356  0.72017  Biso   1.000  H
  C49      1.0000 0.31600  0.49347  0.72954  Biso   1.000  C
  O44      1.0000 0.40804  0.50032  0.82588  Biso   1.000  O
  C50      1.0000 0.34905  0.50423  0.84393  Biso   1.000  C
  C51      1.0000 0.29840  0.50588  0.79375  Biso   1.000  C
  H24      1.0000 0.28578  0.48322  0.63091  Biso   1.000  H
  C52      1.0000 0.27142  0.49275  0.68003  Biso   1.000  C
  C53      1.0000 0.20608  0.50366  0.69446  Biso   1.000  C
  C54      1.0000 0.15411  0.49992  0.64466  Biso   1.000  C
  O45      1.0000 0.17127  0.49943  0.58543  Biso   1.000  O
  C55      1.0000 0.23254  0.51933  0.80796  Biso   1.000  C
  O46      1.0000 0.33076  0.50574  0.90300  Biso   1.000  O
  H25      1.0000 0.13705  0.52528  0.76728  Biso   1.000  H
  C56      1.0000 0.18774  0.51701  0.75724  Biso   1.000  C
  O47      1.0000 0.09664  0.49734  0.66626  Biso   1.000  O
  O48      1.0000 0.49712  0.59272  0.83031  Biso   1.000  O
  O49      1.0000 0.59170  0.00277  0.67211  Biso   1.000  O
  O50      1.0000 0.40523  0.00022  0.66972  Biso   1.000  O
  O51      1.0000 0.49493  0.90741  0.67235  Biso   1.000  O
  Zr14     1.0000 0.00146  0.49703  0.61978  Biso   1.000  Zr
  O52      1.0000 0.56925  0.56663  0.93321  Biso   1.000  O
  O53      1.0000 0.43312  0.43297  0.93317  Biso   1.000  O
  O54      1.0000 0.55023  0.45001  0.95246  Biso   1.000  O
  O55      1.0000 0.45148  0.54956  0.94995  Biso   1.000  O
  H26      1.0000 0.46620  0.72561  0.63617  Biso   1.000  H
  C57      1.0000 0.47666  0.73591  0.68621  Biso   1.000  C
  C58      1.0000 0.49295  0.84918  0.65338  Biso   1.000  C
  C59      1.0000 0.49057  0.79855  0.70379  Biso   1.000  C
  C60      1.0000 0.47678  0.68561  0.73143  Biso   1.000  C
  C61      1.0000 0.49288  0.70094  0.79625  Biso   1.000  C
  C62      1.0000 0.49676  0.65209  0.84721  Biso   1.000  C
  H27      1.0000 0.51511  0.86328  0.78083  Biso   1.000  H
  C63      1.0000 0.50460  0.81398  0.76806  Biso   1.000  C
  H28      1.0000 0.51821  0.77500  0.86255  Biso   1.000  H
  C64      1.0000 0.50593  0.76519  0.81285  Biso   1.000  C
  O56      1.0000 0.50045  0.67153  0.90563  Biso   1.000  O
  H29      1.0000 0.40490  0.59588  0.09311  Biso   1.000  H
  H30      1.0000 0.59355  0.40630  0.09673  Biso   1.000  H
  C65      1.0000 0.27132  0.32072  0.50949  Biso   1.000  C
  O57      1.0000 0.16946  0.41460  0.49903  Biso   1.000  O
  C66      1.0000 0.15336  0.35459  0.49619  Biso   1.000  C
  C67      1.0000 0.20581  0.30634  0.49509  Biso   1.000  C
  H31      1.0000 0.36647  0.27975  0.51990  Biso   1.000  H
  C68      1.0000 0.31616  0.26999  0.50916  Biso   1.000  C
  C69      1.0000 0.29782  0.20724  0.49564  Biso   1.000  C
  C70      1.0000 0.34745  0.15519  0.49709  Biso   1.000  C
  H32      1.0000 0.13841  0.23303  0.46945  Biso   1.000  H
  C71      1.0000 0.18859  0.24247  0.48080  Biso   1.000  C
  O58      1.0000 0.09568  0.33349  0.49443  Biso   1.000  O
  H33      1.0000 0.21947  0.14424  0.47001  Biso   1.000  H
  C72      1.0000 0.23319  0.19319  0.48105  Biso   1.000  C
  O59      1.0000 0.32777  0.09713  0.49690  Biso   1.000  O
  H34      1.0000 0.28503  0.63155  0.51216  Biso   1.000  H
  C73      1.0000 0.26984  0.68110  0.50764  Biso   1.000  C
  O60      1.0000 0.16956  0.58618  0.50030  Biso   1.000  O
  C74      1.0000 0.15231  0.64529  0.50147  Biso   1.000  C
  C75      1.0000 0.20385  0.69562  0.50108  Biso   1.000  C
  H35      1.0000 0.36513  0.72144  0.51319  Biso   1.000  H
  C76      1.0000 0.31392  0.73106  0.50826  Biso   1.000  C
  C77      1.0000 0.29530  0.79596  0.50249  Biso   1.000  C
  C78      1.0000 0.34591  0.84621  0.50190  Biso   1.000  C
  H36      1.0000 0.13330  0.76931  0.48964  Biso   1.000  H
  C79      1.0000 0.18433  0.75905  0.49489  Biso   1.000  C
  O61      1.0000 0.09443  0.66621  0.50309  Biso   1.000  O
  C80      1.0000 0.22844  0.81039  0.49548  Biso   1.000  C
  O62      1.0000 0.32791  0.90549  0.49989  Biso   1.000  O
  O63      1.0000 0.32785  0.40945  0.00039  Biso   1.000  O
  O64      1.0000 0.32768  0.59393  0.99684  Biso   1.000  O
  Zr15     1.0000 0.00036  0.61859  0.50328  Biso   1.000  Zr
  Zr16     1.0000 0.00091  0.38067  0.49753  Biso   1.000  Zr
  O65      1.0000 0.06151  0.44198  0.55547  Biso   1.000  O
  O66      1.0000 0.06020  0.55796  0.44429  Biso   1.000  O
  O67      1.0000 0.06065  0.44459  0.44154  Biso   1.000  O
  O68      1.0000 0.06130  0.55552  0.55824  Biso   1.000  O
  H37      1.0000 0.40635  0.40604  0.90627  Biso   1.000  H
  H38      1.0000 0.59652  0.59331  0.90655  Biso   1.000  H
  H39      1.0000 0.71558  0.63187  0.49035  Biso   1.000  H
  C81      1.0000 0.73067  0.68124  0.49667  Biso   1.000  C
  O69      1.0000 0.83063  0.58613  0.50278  Biso   1.000  O
  C82      1.0000 0.84794  0.64519  0.50494  Biso   1.000  C
  C83      1.0000 0.79625  0.69544  0.50628  Biso   1.000  C
  H40      1.0000 0.63558  0.72160  0.48759  Biso   1.000  H
  C84      1.0000 0.68644  0.73108  0.49546  Biso   1.000  C
  C85      1.0000 0.70470  0.79564  0.50426  Biso   1.000  C
  C86      1.0000 0.65398  0.84597  0.50264  Biso   1.000  C
  H41      1.0000 0.86592  0.76869  0.52396  Biso   1.000  H
  C87      1.0000 0.81517  0.75865  0.51615  Biso   1.000  C
  O70      1.0000 0.90572  0.66628  0.50559  Biso   1.000  O
  C88      1.0000 0.77090  0.80975  0.51598  Biso   1.000  C
  O71      1.0000 0.67240  0.90511  0.50481  Biso   1.000  O
  C89      1.0000 0.72916  0.32147  0.49561  Biso   1.000  C
  O72      1.0000 0.83271  0.41439  0.49831  Biso   1.000  O
  C90      1.0000 0.84831  0.35420  0.49944  Biso   1.000  C
  C91      1.0000 0.79583  0.30611  0.50239  Biso   1.000  C
  H42      1.0000 0.63309  0.28122  0.49223  Biso   1.000  H
  C92      1.0000 0.68413  0.27065  0.49720  Biso   1.000  C
  C93      1.0000 0.70306  0.20719  0.50511  Biso   1.000  C
  C94      1.0000 0.65315  0.15525  0.50509  Biso   1.000  C
  H43      1.0000 0.86450  0.23104  0.51700  Biso   1.000  H
  C95      1.0000 0.81357  0.24133  0.51114  Biso   1.000  C
  O73      1.0000 0.90613  0.33298  0.49794  Biso   1.000  O
  H44      1.0000 0.78322  0.14269  0.51917  Biso   1.000  H
  C96      1.0000 0.76882  0.19222  0.51252  Biso   1.000  C
  O74      1.0000 0.67253  0.09706  0.50565  Biso   1.000  O
  O75      1.0000 0.67282  0.59257  0.00496  Biso   1.000  O
  O76      1.0000 0.66968  0.40635  0.99691  Biso   1.000  O
  O77      1.0000 0.94049  0.55517  0.55864  Biso   1.000  O
  O78      1.0000 0.94074  0.44477  0.44207  Biso   1.000  O
  O79      1.0000 0.93986  0.55813  0.44461  Biso   1.000  O
  O80      1.0000 0.94109  0.44171  0.55588  Biso   1.000  O
  O81      1.0000 0.99775  0.33351  0.40444  Biso   1.000  O
  O82      1.0000 0.00243  0.32815  0.58896  Biso   1.000  O
  O83      1.0000 0.00043  0.66705  0.59681  Biso   1.000  O
  O84      1.0000 0.99963  0.67206  0.41294  Biso   1.000  O
  O85      1.0000 0.00211  0.41028  0.32772  Biso   1.000  O
  O86      1.0000 0.99957  0.59813  0.33331  Biso   1.000  O
  O87      1.0000 0.00230  0.58867  0.67225  Biso   1.000  O
  O88      1.0000 0.00190  0.40346  0.66752  Biso   1.000  O
  O89      1.0000 0.40390  0.33121  0.00520  Biso   1.000  O
  O90      1.0000 0.59358  0.32812  0.00261  Biso   1.000  O
  O91      1.0000 0.59488  0.66939  0.00528  Biso   1.000  O
  O92      1.0000 0.40632  0.66968  0.99178  Biso   1.000  O
  O93      1.0000 0.32882  0.00518  0.40590  Biso   1.000  O
  O94      1.0000 0.32754  0.99659  0.59296  Biso   1.000  O
  O95      1.0000 0.67110  0.00491  0.59668  Biso   1.000  O
  O96      1.0000 0.67248  0.99419  0.41187  Biso   1.000  O
  C97      1.0000 0.31118  0.00802  0.76772  Biso   1.000  C
  C98      1.0000 0.34585  0.99651  0.65166  Biso   1.000  C
  C99      1.0000 0.29668  0.99330  0.70241  Biso   1.000  C
  H45      1.0000 0.26939  0.01699  0.86219  Biso   1.000  H
  C100     1.0000 0.26021  0.00579  0.81211  Biso   1.000  C
  C101     1.0000 0.19802  0.98966  0.79366  Biso   1.000  C
  C102     1.0000 0.14709  0.98974  0.84379  Biso   1.000  C
  O97      1.0000 0.16654  0.99223  0.90203  Biso   1.000  O
  H46      1.0000 0.22439  0.96523  0.63486  Biso   1.000  H
  C103     1.0000 0.23317  0.97669  0.68495  Biso   1.000  C
  H47      1.0000 0.13501  0.96136  0.71615  Biso   1.000  H
  C104     1.0000 0.18378  0.97463  0.72942  Biso   1.000  C
  O98      1.0000 0.08831  0.98882  0.82540  Biso   1.000  O
  H48      1.0000 0.62980  0.98323  0.77772  Biso   1.000  H
  C105     1.0000 0.68034  0.99346  0.76869  Biso   1.000  C
  C106     1.0000 0.65069  0.00526  0.65467  Biso   1.000  C
  C107     1.0000 0.69974  0.00701  0.70640  Biso   1.000  C
  C108     1.0000 0.72461  0.99246  0.81981  Biso   1.000  C
  C109     1.0000 0.79051  0.00522  0.80510  Biso   1.000  C
  C110     1.0000 0.84185  0.00112  0.85354  Biso   1.000  C
  O99      1.0000 0.82519  0.99778  0.91307  Biso   1.000  O
  H49      1.0000 0.77812  0.03305  0.64339  Biso   1.000  H
  C111     1.0000 0.76442  0.02123  0.69220  Biso   1.000  C
  H50      1.0000 0.85919  0.03053  0.73288  Biso   1.000  H
  C112     1.0000 0.80869  0.02003  0.74163  Biso   1.000  C
  O100     1.0000 0.90023  0.99977  0.83356  Biso   1.000  O
  Zr17     1.0000 0.11900  0.99887  0.99644  Biso   1.000  Zr
  Zr18     1.0000 0.88056  0.00094  0.00449  Biso   1.000  Zr
  Zr19     1.0000 0.99566  0.99500  0.88049  Biso   1.000  Zr
  H51      1.0000 0.64193  0.02508  0.23152  Biso   1.000  H
  C113     1.0000 0.69170  0.01193  0.24084  Biso   1.000  C
  C114     1.0000 0.65583  0.99552  0.35222  Biso   1.000  C
  C115     1.0000 0.70767  0.99400  0.30402  Biso   1.000  C
  H52      1.0000 0.72526  0.02863  0.14424  Biso   1.000  H
  C116     1.0000 0.73729  0.01372  0.19264  Biso   1.000  C
  C117     1.0000 0.80133  0.99737  0.20770  Biso   1.000  C
  C118     1.0000 0.85158  0.00075  0.15695  Biso   1.000  C
  O101     1.0000 0.83106  0.00262  0.09902  Biso   1.000  O
  C119     1.0000 0.77231  0.97608  0.31910  Biso   1.000  C
  H53      1.0000 0.86823  0.96647  0.27920  Biso   1.000  H
  C120     1.0000 0.81829  0.97879  0.26936  Biso   1.000  C
  O102     1.0000 0.91057  0.00251  0.17452  Biso   1.000  O
  H54      1.0000 0.37157  0.00030  0.22298  Biso   1.000  H
  C121     1.0000 0.32040  0.00547  0.23275  Biso   1.000  C
  C122     1.0000 0.34928  0.00720  0.34791  Biso   1.000  C
  C123     1.0000 0.30018  0.01087  0.29602  Biso   1.000  C
  C124     1.0000 0.27620  0.00608  0.18146  Biso   1.000  C
  C125     1.0000 0.20939  0.01189  0.19657  Biso   1.000  C
  C126     1.0000 0.15828  0.00813  0.14763  Biso   1.000  C
  O103     1.0000 0.17493  0.00301  0.08814  Biso   1.000  O
  H55      1.0000 0.21973  0.02373  0.36050  Biso   1.000  H
  C127     1.0000 0.23446  0.01851  0.31084  Biso   1.000  C
  H56      1.0000 0.13920  0.02412  0.27059  Biso   1.000  H
  C128     1.0000 0.19039  0.01889  0.26119  Biso   1.000  C
  O104     1.0000 0.09967  0.00849  0.16703  Biso   1.000  O
  Zr20     1.0000 0.00407  0.00429  0.12048  Biso   1.000  Zr
  H57      1.0000 0.27054  0.86047  0.95346  Biso   1.000  H
  C129     1.0000 0.26138  0.81149  0.96867  Biso   1.000  C
  O105     1.0000 0.16954  0.90432  0.99421  Biso   1.000  O
  C130     1.0000 0.15012  0.84620  0.99480  Biso   1.000  C
  C131     1.0000 0.20025  0.79541  0.99046  Biso   1.000  C
  C132     1.0000 0.31165  0.76610  0.96690  Biso   1.000  C
  C133     1.0000 0.29758  0.70289  0.98894  Biso   1.000  C
  C134     1.0000 0.34687  0.65230  0.99229  Biso   1.000  C
  H58      1.0000 0.13802  0.72126  0.02779  Biso   1.000  H
  C135     1.0000 0.18599  0.73261  0.01050  Biso   1.000  C
  O106     1.0000 0.09158  0.82765  0.00023  Biso   1.000  O
  H59      1.0000 0.22625  0.63893  0.02610  Biso   1.000  H
  C136     1.0000 0.23475  0.68755  0.00953  Biso   1.000  C
  H60      1.0000 0.28213  0.13751  0.01935  Biso   1.000  H
  C137     1.0000 0.26800  0.18693  0.01133  Biso   1.000  C
  O107     1.0000 0.17225  0.09235  0.99502  Biso   1.000  O
  C138     1.0000 0.15309  0.15059  0.99636  Biso   1.000  C
  C139     1.0000 0.20288  0.20184  0.99955  Biso   1.000  C
  H61      1.0000 0.36290  0.22694  0.02192  Biso   1.000  H
  C140     1.0000 0.31221  0.23641  0.01310  Biso   1.000  C
  C141     1.0000 0.29403  0.30090  0.00348  Biso   1.000  C
  C142     1.0000 0.34508  0.34988  0.00348  Biso   1.000  C
  H62      1.0000 0.13283  0.27475  0.98221  Biso   1.000  H
  C143     1.0000 0.18354  0.26487  0.99057  Biso   1.000  C
  O108     1.0000 0.09424  0.16905  0.99417  Biso   1.000  O
  C144     1.0000 0.22785  0.31597  0.99223  Biso   1.000  C
  Zr21     1.0000 0.00021  0.11986  0.99551  Biso   1.000  Zr
  Zr22     1.0000 0.99835  0.88041  0.00484  Biso   1.000  Zr
  O109     1.0000 0.06901  0.93411  0.06787  Biso   1.000  O
  O110     1.0000 0.06543  0.06396  0.92811  Biso   1.000  O
  O111     1.0000 0.04733  0.94749  0.95045  Biso   1.000  O
  O112     1.0000 0.05117  0.05093  0.04650  Biso   1.000  O
  H63      1.0000 0.72041  0.13744  0.02179  Biso   1.000  H
  C145     1.0000 0.73244  0.18621  0.00837  Biso   1.000  C
  O113     1.0000 0.82805  0.09326  0.99973  Biso   1.000  O
  C146     1.0000 0.84705  0.15129  0.99396  Biso   1.000  C
  C147     1.0000 0.79624  0.20145  0.99116  Biso   1.000  C
  H64      1.0000 0.63790  0.22540  0.02376  Biso   1.000  H
  C148     1.0000 0.68724  0.23474  0.00910  Biso   1.000  C
  C149     1.0000 0.70317  0.29833  0.99259  Biso   1.000  C
  C150     1.0000 0.65219  0.34705  0.99723  Biso   1.000  C
  H65      1.0000 0.86280  0.27328  0.96065  Biso   1.000  H
  C151     1.0000 0.81306  0.26333  0.97355  Biso   1.000  C
  O114     1.0000 0.90574  0.16984  0.99191  Biso   1.000  O
  C152     1.0000 0.76740  0.31337  0.97304  Biso   1.000  C
  C153     1.0000 0.72884  0.81462  0.02884  Biso   1.000  C
  O115     1.0000 0.82792  0.90819  0.01425  Biso   1.000  O
  C154     1.0000 0.84563  0.84902  0.01464  Biso   1.000  C
  C155     1.0000 0.79485  0.79970  0.01721  Biso   1.000  C
  H66      1.0000 0.63313  0.77378  0.03302  Biso   1.000  H
  C156     1.0000 0.68411  0.76403  0.02615  Biso   1.000  C
  C157     1.0000 0.70344  0.70145  0.01397  Biso   1.000  C
  C158     1.0000 0.65351  0.65075  0.00817  Biso   1.000  C
  H67      1.0000 0.86421  0.72637  0.99854  Biso   1.000  H
  C159     1.0000 0.81334  0.73562  0.00649  Biso   1.000  C
  O116     1.0000 0.90425  0.83020  0.01130  Biso   1.000  O
  H68      1.0000 0.78305  0.63710  0.99678  Biso   1.000  H
  C160     1.0000 0.76887  0.68642  0.00515  Biso   1.000  C
  O117     1.0000 0.93479  0.07036  0.06735  Biso   1.000  O
  O118     1.0000 0.92942  0.93041  0.93784  Biso   1.000  O
  O119     1.0000 0.94873  0.04794  0.95013  Biso   1.000  O
  O120     1.0000 0.95129  0.95237  0.05412  Biso   1.000  O
  H69      1.0000 0.09715  0.90845  0.09462  Biso   1.000  H
  H70      1.0000 0.09193  0.08986  0.89997  Biso   1.000  H
  O121     1.0000 0.99784  0.82506  0.91233  Biso   1.000  O
  O122     1.0000 0.99793  0.83245  0.09957  Biso   1.000  O
  H71      1.0000 0.90111  0.90314  0.91293  Biso   1.000  H
  H72      1.0000 0.90832  0.09806  0.09377  Biso   1.000  H
  O123     1.0000 0.00569  0.17523  0.08837  Biso   1.000  O
  O124     1.0000 0.99478  0.16684  0.89925  Biso   1.000  O
  O125     1.0000 0.99473  0.89927  0.83270  Biso   1.000  O
  O126     1.0000 0.99452  0.08728  0.82487  Biso   1.000  O
  O127     1.0000 0.00800  0.09955  0.16690  Biso   1.000  O
  O128     1.0000 0.00252  0.91104  0.17513  Biso   1.000  O
  H73      1.0000 0.98654  0.27118  0.85828  Biso   1.000  H
  C161     1.0000 0.99042  0.26081  0.80738  Biso   1.000  C
  C162     1.0000 0.99383  0.14702  0.84106  Biso   1.000  C
  C163     1.0000 0.99357  0.19569  0.78943  Biso   1.000  C
  H74      1.0000 0.99018  0.35976  0.77696  Biso   1.000  H
  C164     1.0000 0.99267  0.30980  0.76280  Biso   1.000  C
  C165     1.0000 0.99846  0.29402  0.69737  Biso   1.000  C
  C166     1.0000 0.00116  0.34540  0.64782  Biso   1.000  C
  C167     1.0000 0.99869  0.17972  0.72302  Biso   1.000  C
  H75      1.0000 0.00552  0.21948  0.62742  Biso   1.000  H
  C168     1.0000 0.00128  0.23031  0.67825  Biso   1.000  C
  C169     1.0000 0.00046  0.72319  0.82041  Biso   1.000  C
  C170     1.0000 0.99707  0.84123  0.85261  Biso   1.000  C
  C171     1.0000 0.99816  0.78956  0.80402  Biso   1.000  C
  H76      1.0000 0.00308  0.62729  0.78108  Biso   1.000  H
  C172     1.0000 0.00177  0.67817  0.77006  Biso   1.000  C
  C173     1.0000 0.00082  0.69710  0.70616  Biso   1.000  C
  C174     1.0000 0.00131  0.64743  0.65486  Biso   1.000  C
  H77      1.0000 0.99605  0.85828  0.72814  Biso   1.000  H
  C175     1.0000 0.99750  0.80737  0.73878  Biso   1.000  C
  H78      1.0000 0.99851  0.77649  0.63987  Biso   1.000  H
  C176     1.0000 0.99883  0.76253  0.68999  Biso   1.000  C
  H79      1.0000 0.02391  0.28757  0.13298  Biso   1.000  H
  C177     1.0000 0.01521  0.27362  0.18238  Biso   1.000  C
  C178     1.0000 0.00713  0.15772  0.14709  Biso   1.000  C
  C179     1.0000 0.00615  0.20849  0.19759  Biso   1.000  C
  H80      1.0000 0.02069  0.36885  0.22144  Biso   1.000  H
  C180     1.0000 0.01331  0.31829  0.23142  Biso   1.000  C
  C181     1.0000 0.00209  0.30073  0.29590  Biso   1.000  C
  C182     1.0000 0.00056  0.35143  0.34518  Biso   1.000  C
  H81      1.0000 0.98837  0.13936  0.27099  Biso   1.000  H
  C183     1.0000 0.99508  0.18994  0.26061  Biso   1.000  C
  C184     1.0000 0.99226  0.23469  0.31109  Biso   1.000  C
  H82      1.0000 0.99028  0.72371  0.14158  Biso   1.000  H
  C185     1.0000 0.99456  0.73696  0.19171  Biso   1.000  C
  C186     1.0000 0.99950  0.85238  0.15760  Biso   1.000  C
  C187     1.0000 0.99902  0.80213  0.20853  Biso   1.000  C
  H83      1.0000 0.99189  0.64075  0.22854  Biso   1.000  H
  C188     1.0000 0.99549  0.69141  0.23984  Biso   1.000  C
  C189     1.0000 0.00053  0.70830  0.30515  Biso   1.000  C
  C190     1.0000 0.99997  0.65618  0.35307  Biso   1.000  C
  H84      1.0000 0.00798  0.87081  0.28396  Biso   1.000  H
  C191     1.0000 0.00405  0.82015  0.27247  Biso   1.000  C
  C192     1.0000 0.00487  0.77444  0.32216  Biso   1.000  C
  N1       1.0000 0.01217  0.79565  0.38440  Biso   1.000  N
  H85      1.0000 0.00166  0.76285  0.41890  Biso   1.000  H
  H86      1.0000 0.99968  0.84175  0.39288  Biso   1.000  H
  N2       1.0000 0.99976  0.11774  0.70070  Biso   1.000  N
  H87      1.0000 0.01914  0.11063  0.65672  Biso   1.000  H
  H88      1.0000 0.00680  0.08326  0.73447  Biso   1.000  H
  N3       1.0000 0.49177  0.37963  0.29610  Biso   1.000  N
  H89      1.0000 0.51059  0.38609  0.34045  Biso   1.000  H
  H90      1.0000 0.50207  0.41355  0.26257  Biso   1.000  H
  N4       1.0000 0.46294  0.62472  0.71079  Biso   1.000  N
  H91      1.0000 0.43676  0.62054  0.67008  Biso   1.000  H
  H92      1.0000 0.45757  0.59036  0.74490  Biso   1.000  H
  N5       1.0000 0.79204  0.95768  0.37922  Biso   1.000  N
  H93      1.0000 0.83154  0.92939  0.38202  Biso   1.000  H
  H94      1.0000 0.75735  0.95012  0.41272  Biso   1.000  H
  N6       1.0000 0.79439  0.87113  0.52537  Biso   1.000  N
  H95      1.0000 0.76015  0.90471  0.53500  Biso   1.000  H
  H96      1.0000 0.83518  0.87398  0.55199  Biso   1.000  H
  N7       1.0000 0.79629  0.52107  0.87172  Biso   1.000  N
  H97      1.0000 0.83669  0.54827  0.87394  Biso   1.000  H
  H98      1.0000 0.76217  0.53017  0.90558  Biso   1.000  H
  N8       1.0000 0.78716  0.37343  0.95526  Biso   1.000  N
  H99      1.0000 0.75309  0.40776  0.94927  Biso   1.000  H
  H100     1.0000 0.82729  0.37696  0.92791  Biso   1.000  H
  N9       1.0000 0.70228  0.98005  0.88059  Biso   1.000  N
  H101     1.0000 0.73607  0.97289  0.91512  Biso   1.000  H
  H102     1.0000 0.66060  0.95516  0.88439  Biso   1.000  H
  N10      1.0000 0.70700  0.38315  0.48895  Biso   1.000  N
  H103     1.0000 0.66321  0.38897  0.46843  Biso   1.000  H
  H104     1.0000 0.74051  0.41742  0.47956  Biso   1.000  H
  N11      1.0000 0.70749  0.52881  0.38340  Biso   1.000  N
  H105     1.0000 0.74268  0.53758  0.41630  Biso   1.000  H
  H106     1.0000 0.66810  0.55741  0.38650  Biso   1.000  H
  N12      1.0000 0.70640  0.87583  0.04041  Biso   1.000  N
  H107     1.0000 0.66501  0.87863  0.06606  Biso   1.000  H
  H108     1.0000 0.74064  0.90909  0.05092  Biso   1.000  H
  N13      1.0000 0.29932  0.00219  0.11987  Biso   1.000  N
  H109     1.0000 0.26594  0.99384  0.08515  Biso   1.000  H
  H110     1.0000 0.34395  0.98356  0.11402  Biso   1.000  H
  N14      1.0000 0.20502  0.37705  0.98390  Biso   1.000  N
  H111     1.0000 0.16199  0.38217  0.96170  Biso   1.000  H
  H112     1.0000 0.23830  0.41219  0.97806  Biso   1.000  H
  N15      1.0000 0.54040  0.20956  0.87764  Biso   1.000  N
  H113     1.0000 0.54708  0.24378  0.91168  Biso   1.000  H
  H114     1.0000 0.56779  0.16955  0.88104  Biso   1.000  H
  N16      1.0000 0.48741  0.62447  0.29284  Biso   1.000  N
  H115     1.0000 0.46296  0.62054  0.33473  Biso   1.000  H
  H116     1.0000 0.47753  0.59122  0.25858  Biso   1.000  H
  N17      1.0000 0.29177  0.47124  0.38053  Biso   1.000  N
  H117     1.0000 0.33108  0.44269  0.38413  Biso   1.000  H
  H118     1.0000 0.25766  0.46528  0.41498  Biso   1.000  H
  N18      1.0000 0.29308  0.38214  0.52239  Biso   1.000  N
  H119     1.0000 0.25803  0.41476  0.53260  Biso   1.000  H
  H120     1.0000 0.33309  0.38461  0.55018  Biso   1.000  H
  N19      1.0000 0.37158  0.02342  0.78999  Biso   1.000  N
  H121     1.0000 0.40623  0.03106  0.75646  Biso   1.000  H
  H122     1.0000 0.37375  0.04942  0.83093  Biso   1.000  H
  N20      1.0000 0.37126  0.78505  0.94552  Biso   1.000  N
  H123     1.0000 0.40565  0.75080  0.94030  Biso   1.000  H
  H124     1.0000 0.37285  0.82285  0.91513  Biso   1.000  H
  N21      1.0000 0.21013  0.53262  0.86885  Biso   1.000  N
  H125     1.0000 0.24450  0.54229  0.90229  Biso   1.000  H
  H126     1.0000 0.16943  0.55932  0.87108  Biso   1.000  H
  N22      1.0000 0.20461  0.87170  0.49094  Biso   1.000  N
  H127     1.0000 0.16096  0.87670  0.46987  Biso   1.000  H
  H128     1.0000 0.23788  0.90674  0.48369  Biso   1.000  H
  N23      1.0000 0.99927  0.70131  0.88268  Biso   1.000  N
  H129     1.0000 0.00813  0.73493  0.91694  Biso   1.000  H
  H130     1.0000 0.01603  0.65644  0.89038  Biso   1.000  H
  N24      1.0000 0.98145  0.21188  0.37210  Biso   1.000  N
  H131     1.0000 0.95906  0.16891  0.37530  Biso   1.000  H
  H132     1.0000 0.97065  0.24507  0.40604  Biso   1.000  H
