data_image0
_cell_length_a       20.7722
_cell_length_b       20.8916
_cell_length_c       20.8654
_cell_angle_alpha    90
_cell_angle_beta     90
_cell_angle_gamma    90

_symmetry_space_group_name_H-M    "P 1"
_symmetry_int_tables_number       1

loop_
  _symmetry_equiv_pos_as_xyz
  'x, y, z'

loop_
  _atom_site_label
  _atom_site_occupancy
  _atom_site_fract_x
  _atom_site_fract_y
  _atom_site_fract_z
  _atom_site_thermal_displace_type
  _atom_site_B_iso_or_equiv
  _atom_site_type_symbol
  H1       1.0000 0.50435  0.27570  0.36736  Biso   1.000  H
  C1       1.0000 0.50274  0.26460  0.31644  Biso   1.000  C
  O1       1.0000 0.49743  0.16926  0.40715  Biso   1.000  O
  C2       1.0000 0.50053  0.15020  0.34912  Biso   1.000  C
  C3       1.0000 0.50078  0.20068  0.29782  Biso   1.000  C
  C4       1.0000 0.50186  0.31514  0.27159  Biso   1.000  C
  C5       1.0000 0.49870  0.29959  0.20488  Biso   1.000  C
  C6       1.0000 0.49774  0.34946  0.15406  Biso   1.000  C
  O2       1.0000 0.49708  0.40854  0.17171  Biso   1.000  O
  H2       1.0000 0.49598  0.13526  0.21757  Biso   1.000  H
  C7       1.0000 0.49786  0.18517  0.23207  Biso   1.000  C
  O3       1.0000 0.50252  0.09138  0.33083  Biso   1.000  O
  H3       1.0000 0.49419  0.22346  0.13629  Biso   1.000  H
  C8       1.0000 0.49677  0.23426  0.18721  Biso   1.000  C
  O4       1.0000 0.49682  0.33127  0.09496  Biso   1.000  O
  Zr1      1.0000 0.49895  0.11824  0.50168  Biso   1.000  Zr
  O5       1.0000 0.56249  0.06218  0.43891  Biso   1.000  O
  O6       1.0000 0.44677  0.05219  0.44517  Biso   1.000  O
  O7       1.0000 0.43620  0.06166  0.56428  Biso   1.000  O
  O8       1.0000 0.55212  0.05279  0.55848  Biso   1.000  O
  H4       1.0000 0.36082  0.46736  0.27436  Biso   1.000  H
  C9       1.0000 0.31149  0.48187  0.26439  Biso   1.000  C
  O9       1.0000 0.40545  0.50046  0.17070  Biso   1.000  O
  C10      1.0000 0.34667  0.50270  0.15245  Biso   1.000  C
  C11      1.0000 0.29543  0.50145  0.20277  Biso   1.000  C
  C12      1.0000 0.26546  0.47964  0.31419  Biso   1.000  C
  C13      1.0000 0.20089  0.49896  0.29972  Biso   1.000  C
  C14      1.0000 0.14959  0.49907  0.34888  Biso   1.000  C
  O10      1.0000 0.16711  0.49449  0.40768  Biso   1.000  O
  H5       1.0000 0.21937  0.53411  0.13986  Biso   1.000  H
  C15      1.0000 0.23154  0.51927  0.18824  Biso   1.000  C
  O11      1.0000 0.32794  0.50533  0.09392  Biso   1.000  O
  H6       1.0000 0.13621  0.53184  0.22689  Biso   1.000  H
  C16      1.0000 0.18573  0.51789  0.23652  Biso   1.000  C
  O12      1.0000 0.09022  0.50290  0.33061  Biso   1.000  O
  Zr2      1.0000 0.49997  0.50145  0.11849  Biso   1.000  Zr
  H7       1.0000 0.63830  0.53568  0.27429  Biso   1.000  H
  C17      1.0000 0.68815  0.52318  0.26421  Biso   1.000  C
  O13      1.0000 0.59462  0.50352  0.17090  Biso   1.000  O
  C18      1.0000 0.65322  0.50120  0.15253  Biso   1.000  C
  C19      1.0000 0.70466  0.50415  0.20253  Biso   1.000  C
  C20      1.0000 0.73418  0.52662  0.31372  Biso   1.000  C
  C21      1.0000 0.79918  0.50937  0.29902  Biso   1.000  C
  C22      1.0000 0.85027  0.50815  0.34847  Biso   1.000  C
  O14      1.0000 0.83069  0.50831  0.40742  Biso   1.000  O
  H8       1.0000 0.78130  0.47373  0.13922  Biso   1.000  H
  C23      1.0000 0.76896  0.48846  0.18762  Biso   1.000  C
  O15      1.0000 0.67212  0.49739  0.09410  Biso   1.000  O
  H9       1.0000 0.86479  0.47874  0.22599  Biso   1.000  H
  C24      1.0000 0.81490  0.49128  0.23571  Biso   1.000  C
  O16      1.0000 0.90952  0.50526  0.33129  Biso   1.000  O
  Nb1      1.0000 0.50473  0.00422  0.38929  Biso   1.000  Nb
  O17      1.0000 0.50017  0.16960  0.59751  Biso   1.000  O
  O18      1.0000 0.50230  0.59522  0.16928  Biso   1.000  O
  O19      1.0000 0.40583  0.16967  0.49983  Biso   1.000  O
  O20      1.0000 0.59193  0.16974  0.50553  Biso   1.000  O
  O21      1.0000 0.41354  0.00326  0.33095  Biso   1.000  O
  O22      1.0000 0.59409  0.99979  0.33340  Biso   1.000  O
  O23      1.0000 0.50576  0.91098  0.33091  Biso   1.000  O
  Zr3      1.0000 0.11644  0.50024  0.50064  Biso   1.000  Zr
  Zr4      1.0000 0.87722  0.50039  0.50101  Biso   1.000  Zr
  Nb2      1.0000 0.50144  0.38816  0.00671  Biso   1.000  Nb
  Nb3      1.0000 0.49434  0.00362  0.61309  Biso   1.000  Nb
  Nb4      1.0000 0.00317  0.50460  0.38813  Biso   1.000  Nb
  Zr5      1.0000 0.61976  0.49646  0.00358  Biso   1.000  Zr
  Zr6      1.0000 0.38080  0.50534  0.00290  Biso   1.000  Zr
  Zr7      1.0000 0.61817  0.00300  0.50186  Biso   1.000  Zr
  Zr8      1.0000 0.37949  0.00255  0.50176  Biso   1.000  Zr
  O24      1.0000 0.43567  0.93564  0.43429  Biso   1.000  O
  O25      1.0000 0.43925  0.56645  0.06171  Biso   1.000  O
  O26      1.0000 0.56098  0.43600  0.06378  Biso   1.000  O
  O27      1.0000 0.54994  0.94753  0.45081  Biso   1.000  O
  O28      1.0000 0.44526  0.44688  0.05331  Biso   1.000  O
  O29      1.0000 0.55507  0.55547  0.05271  Biso   1.000  O
  H10      1.0000 0.48211  0.72802  0.36317  Biso   1.000  H
  C25      1.0000 0.49066  0.73900  0.31293  Biso   1.000  C
  O30      1.0000 0.50273  0.83104  0.40561  Biso   1.000  O
  C26      1.0000 0.50459  0.85202  0.34754  Biso   1.000  C
  C27      1.0000 0.50349  0.80210  0.29566  Biso   1.000  C
  C28      1.0000 0.48872  0.68887  0.26759  Biso   1.000  C
  C29      1.0000 0.50105  0.70399  0.20185  Biso   1.000  C
  C30      1.0000 0.50175  0.65405  0.15085  Biso   1.000  C
  H11      1.0000 0.52427  0.86660  0.21719  Biso   1.000  H
  C31      1.0000 0.51447  0.81731  0.23068  Biso   1.000  C
  H12      1.0000 0.52160  0.77891  0.13502  Biso   1.000  H
  C32      1.0000 0.51311  0.76852  0.18541  Biso   1.000  C
  O31      1.0000 0.50297  0.67193  0.09181  Biso   1.000  O
  Zr9      1.0000 0.49881  0.87697  0.50104  Biso   1.000  Zr
  H13      1.0000 0.40946  0.91256  0.40347  Biso   1.000  H
  H14      1.0000 0.58834  0.91232  0.59979  Biso   1.000  H
  O32      1.0000 0.56278  0.93537  0.56841  Biso   1.000  O
  O33      1.0000 0.44819  0.94714  0.55227  Biso   1.000  O
  O34      1.0000 0.49429  0.83066  0.59686  Biso   1.000  O
  O35      1.0000 0.59409  0.83003  0.50062  Biso   1.000  O
  O36      1.0000 0.40447  0.83006  0.50172  Biso   1.000  O
  Nb5      1.0000 0.49914  0.61222  0.00351  Biso   1.000  Nb
  H15      1.0000 0.48265  0.27769  0.64255  Biso   1.000  H
  C33      1.0000 0.49085  0.26418  0.69214  Biso   1.000  C
  C34      1.0000 0.49898  0.14960  0.65510  Biso   1.000  C
  C35      1.0000 0.50042  0.19910  0.70747  Biso   1.000  C
  H16      1.0000 0.48467  0.35972  0.72993  Biso   1.000  H
  C36      1.0000 0.49200  0.30934  0.74071  Biso   1.000  C
  C37      1.0000 0.50250  0.29275  0.80557  Biso   1.000  C
  C38      1.0000 0.50273  0.34505  0.85376  Biso   1.000  C
  O37      1.0000 0.50172  0.40303  0.83243  Biso   1.000  O
  H17      1.0000 0.51954  0.13108  0.78192  Biso   1.000  H
  C39      1.0000 0.51146  0.18136  0.77086  Biso   1.000  C
  O38      1.0000 0.49711  0.09045  0.67269  Biso   1.000  O
  C40      1.0000 0.51284  0.22689  0.82122  Biso   1.000  C
  O39      1.0000 0.50259  0.33030  0.91387  Biso   1.000  O
  H18      1.0000 0.64141  0.46753  0.72753  Biso   1.000  H
  C41      1.0000 0.69168  0.47777  0.73778  Biso   1.000  C
  O40      1.0000 0.59707  0.49443  0.83048  Biso   1.000  O
  C42      1.0000 0.65581  0.49453  0.84998  Biso   1.000  C
  C43      1.0000 0.70802  0.49232  0.80182  Biso   1.000  C
  H19      1.0000 0.72429  0.46513  0.64029  Biso   1.000  H
  C44      1.0000 0.73726  0.47658  0.68940  Biso   1.000  C
  C45      1.0000 0.80189  0.49036  0.70476  Biso   1.000  C
  C46      1.0000 0.85155  0.49268  0.65299  Biso   1.000  C
  O41      1.0000 0.83005  0.49472  0.59542  Biso   1.000  O
  C47      1.0000 0.77372  0.50553  0.81744  Biso   1.000  C
  O42      1.0000 0.67235  0.49729  0.90952  Biso   1.000  O
  H20      1.0000 0.86981  0.51417  0.77806  Biso   1.000  H
  C48      1.0000 0.81952  0.50398  0.76758  Biso   1.000  C
  O43      1.0000 0.91090  0.49442  0.66969  Biso   1.000  O
  Zr10     1.0000 0.50105  0.49812  0.87761  Biso   1.000  Zr
  H21      1.0000 0.36083  0.47736  0.72603  Biso   1.000  H
  C49      1.0000 0.31087  0.48918  0.73610  Biso   1.000  C
  O44      1.0000 0.40569  0.50027  0.82841  Biso   1.000  O
  C50      1.0000 0.34704  0.50483  0.84824  Biso   1.000  C
  C51      1.0000 0.29501  0.50509  0.79995  Biso   1.000  C
  H22      1.0000 0.27771  0.47587  0.63891  Biso   1.000  H
  C52      1.0000 0.26513  0.48785  0.68796  Biso   1.000  C
  C53      1.0000 0.20056  0.50181  0.70331  Biso   1.000  C
  C54      1.0000 0.15031  0.50028  0.65194  Biso   1.000  C
  O45      1.0000 0.17017  0.50062  0.59424  Biso   1.000  O
  C55      1.0000 0.22978  0.52054  0.81533  Biso   1.000  C
  O46      1.0000 0.33079  0.50823  0.90767  Biso   1.000  O
  H23      1.0000 0.13337  0.52821  0.77629  Biso   1.000  H
  C56      1.0000 0.18357  0.51764  0.76575  Biso   1.000  C
  O47      1.0000 0.09123  0.49959  0.67032  Biso   1.000  O
  O48      1.0000 0.49702  0.59328  0.83047  Biso   1.000  O
  O49      1.0000 0.58578  0.00248  0.67215  Biso   1.000  O
  O50      1.0000 0.40679  0.99982  0.66919  Biso   1.000  O
  O51      1.0000 0.49403  0.91037  0.67187  Biso   1.000  O
  Nb6      1.0000 0.00357  0.49548  0.61303  Biso   1.000  Nb
  O52      1.0000 0.56646  0.56429  0.93515  Biso   1.000  O
  O53      1.0000 0.43459  0.43545  0.93618  Biso   1.000  O
  O54      1.0000 0.54928  0.44764  0.94937  Biso   1.000  O
  O55      1.0000 0.45184  0.55211  0.94739  Biso   1.000  O
  H24      1.0000 0.46036  0.72891  0.64031  Biso   1.000  H
  C57      1.0000 0.47274  0.73917  0.68992  Biso   1.000  C
  C58      1.0000 0.49219  0.85154  0.65484  Biso   1.000  C
  C59      1.0000 0.48943  0.80148  0.70660  Biso   1.000  C
  C60      1.0000 0.47243  0.68865  0.73504  Biso   1.000  C
  C61      1.0000 0.49150  0.70259  0.79946  Biso   1.000  C
  C62      1.0000 0.49619  0.65227  0.84972  Biso   1.000  C
  H25      1.0000 0.51847  0.86455  0.78362  Biso   1.000  H
  C63      1.0000 0.50582  0.81577  0.77068  Biso   1.000  C
  H26      1.0000 0.52137  0.77599  0.86466  Biso   1.000  H
  C64      1.0000 0.50701  0.76654  0.81541  Biso   1.000  C
  O56      1.0000 0.50048  0.66960  0.90860  Biso   1.000  O
  C65      1.0000 0.26979  0.31549  0.51351  Biso   1.000  C
  O57      1.0000 0.16986  0.40812  0.49999  Biso   1.000  O
  C66      1.0000 0.15269  0.34893  0.49985  Biso   1.000  C
  C67      1.0000 0.20403  0.30001  0.50113  Biso   1.000  C
  H27      1.0000 0.36564  0.27568  0.52171  Biso   1.000  H
  C68      1.0000 0.31503  0.26533  0.51317  Biso   1.000  C
  C69      1.0000 0.29673  0.20237  0.50157  Biso   1.000  C
  C70      1.0000 0.34712  0.15166  0.50052  Biso   1.000  C
  H28      1.0000 0.13636  0.22579  0.47958  Biso   1.000  H
  C71      1.0000 0.18675  0.23572  0.48955  Biso   1.000  C
  O58      1.0000 0.09395  0.33012  0.49776  Biso   1.000  O
  H29      1.0000 0.21852  0.13756  0.48043  Biso   1.000  H
  C72      1.0000 0.23183  0.18695  0.48980  Biso   1.000  C
  O59      1.0000 0.32768  0.09344  0.49952  Biso   1.000  O
  H30      1.0000 0.28216  0.63642  0.51645  Biso   1.000  H
  C73      1.0000 0.26820  0.68601  0.50933  Biso   1.000  C
  O60      1.0000 0.17116  0.59219  0.50331  Biso   1.000  O
  C74      1.0000 0.15254  0.65029  0.50197  Biso   1.000  C
  C75      1.0000 0.20272  0.70126  0.50031  Biso   1.000  C
  H31      1.0000 0.36367  0.72551  0.51622  Biso   1.000  H
  C76      1.0000 0.31273  0.73520  0.50926  Biso   1.000  C
  C77      1.0000 0.29454  0.79980  0.50033  Biso   1.000  C
  C78      1.0000 0.34537  0.84891  0.50020  Biso   1.000  C
  H32      1.0000 0.13267  0.77436  0.48373  Biso   1.000  H
  C79      1.0000 0.18353  0.76421  0.49082  Biso   1.000  C
  O61      1.0000 0.09375  0.66925  0.50295  Biso   1.000  O
  C80      1.0000 0.22819  0.81502  0.49050  Biso   1.000  C
  O62      1.0000 0.32832  0.90818  0.49759  Biso   1.000  O
  O63      1.0000 0.33038  0.41108  0.00293  Biso   1.000  O
  O64      1.0000 0.33118  0.59826  0.99747  Biso   1.000  O
  Zr11     1.0000 0.00193  0.61902  0.50111  Biso   1.000  Zr
  Zr12     1.0000 0.00096  0.38044  0.50183  Biso   1.000  Zr
  O65      1.0000 0.06128  0.43775  0.56399  Biso   1.000  O
  O66      1.0000 0.06140  0.56278  0.43784  Biso   1.000  O
  O67      1.0000 0.05019  0.44743  0.44486  Biso   1.000  O
  O68      1.0000 0.05216  0.55338  0.55796  Biso   1.000  O
  H33      1.0000 0.40787  0.40502  0.91315  Biso   1.000  H
  H34      1.0000 0.59296  0.59449  0.91158  Biso   1.000  H
  H35      1.0000 0.71734  0.63759  0.48856  Biso   1.000  H
  C81      1.0000 0.73138  0.68724  0.49481  Biso   1.000  C
  O69      1.0000 0.82708  0.59372  0.50227  Biso   1.000  O
  C82      1.0000 0.84698  0.65197  0.50271  Biso   1.000  C
  C83      1.0000 0.79669  0.70281  0.50383  Biso   1.000  C
  H36      1.0000 0.63563  0.72613  0.48700  Biso   1.000  H
  C84      1.0000 0.68644  0.73608  0.49449  Biso   1.000  C
  C85      1.0000 0.70422  0.80054  0.50398  Biso   1.000  C
  C86      1.0000 0.65275  0.84932  0.50307  Biso   1.000  C
  H37      1.0000 0.86613  0.77625  0.52150  Biso   1.000  H
  C87      1.0000 0.81535  0.76589  0.51406  Biso   1.000  C
  O70      1.0000 0.90573  0.66972  0.50288  Biso   1.000  O
  C88      1.0000 0.77018  0.81613  0.51532  Biso   1.000  C
  O71      1.0000 0.66987  0.90848  0.50544  Biso   1.000  O
  C89      1.0000 0.72688  0.31676  0.50427  Biso   1.000  C
  O72      1.0000 0.82776  0.40853  0.49973  Biso   1.000  O
  C90      1.0000 0.84529  0.34889  0.50269  Biso   1.000  C
  C91      1.0000 0.79377  0.30047  0.50486  Biso   1.000  C
  H38      1.0000 0.63058  0.27711  0.50437  Biso   1.000  H
  C92      1.0000 0.68182  0.26633  0.50450  Biso   1.000  C
  C93      1.0000 0.70104  0.20270  0.50504  Biso   1.000  C
  C94      1.0000 0.65069  0.15189  0.50496  Biso   1.000  C
  H39      1.0000 0.86310  0.22474  0.50667  Biso   1.000  H
  C95      1.0000 0.81187  0.23528  0.50602  Biso   1.000  C
  O73      1.0000 0.90411  0.33067  0.50265  Biso   1.000  O
  H40      1.0000 0.78100  0.13645  0.50637  Biso   1.000  H
  C96      1.0000 0.76690  0.18649  0.50596  Biso   1.000  C
  O74      1.0000 0.67028  0.09375  0.50502  Biso   1.000  O
  O75      1.0000 0.67112  0.59163  0.00362  Biso   1.000  O
  O76      1.0000 0.66652  0.40407  0.99486  Biso   1.000  O
  O77      1.0000 0.93455  0.56397  0.56808  Biso   1.000  O
  O78      1.0000 0.93377  0.43636  0.43395  Biso   1.000  O
  O79      1.0000 0.94724  0.55051  0.45034  Biso   1.000  O
  O80      1.0000 0.94678  0.44951  0.55215  Biso   1.000  O
  O81      1.0000 0.00206  0.33315  0.40689  Biso   1.000  O
  O82      1.0000 0.99680  0.33033  0.59353  Biso   1.000  O
  H41      1.0000 0.91019  0.41051  0.40321  Biso   1.000  H
  H42      1.0000 0.91129  0.58950  0.59930  Biso   1.000  H
  O83      1.0000 0.00308  0.66723  0.59732  Biso   1.000  O
  O84      1.0000 0.99466  0.67070  0.41092  Biso   1.000  O
  O85      1.0000 0.00270  0.41119  0.33039  Biso   1.000  O
  O86      1.0000 0.99744  0.59500  0.33303  Biso   1.000  O
  O87      1.0000 0.00237  0.58718  0.67214  Biso   1.000  O
  O88      1.0000 0.99938  0.40771  0.67015  Biso   1.000  O
  O89      1.0000 0.40771  0.33342  0.00556  Biso   1.000  O
  O90      1.0000 0.58876  0.32805  0.00270  Biso   1.000  O
  O91      1.0000 0.59136  0.66719  0.00306  Biso   1.000  O
  O92      1.0000 0.41254  0.67107  0.99557  Biso   1.000  O
  O93      1.0000 0.33234  0.00532  0.40509  Biso   1.000  O
  O94      1.0000 0.32806  0.99427  0.59369  Biso   1.000  O
  O95      1.0000 0.66695  0.00457  0.59806  Biso   1.000  O
  O96      1.0000 0.66988  0.99399  0.41157  Biso   1.000  O
  C97      1.0000 0.31154  0.01639  0.76727  Biso   1.000  C
  C98      1.0000 0.34697  0.99763  0.65188  Biso   1.000  C
  C99      1.0000 0.29778  0.99769  0.70290  Biso   1.000  C
  H43      1.0000 0.26954  0.02804  0.86145  Biso   1.000  H
  C100     1.0000 0.26054  0.01458  0.81189  Biso   1.000  C
  C101     1.0000 0.19872  0.99571  0.79435  Biso   1.000  C
  C102     1.0000 0.14761  0.99475  0.84461  Biso   1.000  C
  O97      1.0000 0.16696  0.99731  0.90285  Biso   1.000  O
  H44      1.0000 0.22609  0.96495  0.63677  Biso   1.000  H
  C103     1.0000 0.23460  0.97902  0.68623  Biso   1.000  C
  H45      1.0000 0.13677  0.96279  0.71781  Biso   1.000  H
  C104     1.0000 0.18511  0.97789  0.73068  Biso   1.000  C
  O98      1.0000 0.08866  0.99251  0.82656  Biso   1.000  O
  H46      1.0000 0.62654  0.98189  0.78063  Biso   1.000  H
  C105     1.0000 0.67680  0.99253  0.77045  Biso   1.000  C
  C106     1.0000 0.64531  0.00532  0.65558  Biso   1.000  C
  C107     1.0000 0.69458  0.00707  0.70787  Biso   1.000  C
  C108     1.0000 0.72237  0.99098  0.82076  Biso   1.000  C
  C109     1.0000 0.78819  0.00428  0.80550  Biso   1.000  C
  C110     1.0000 0.84061  0.00058  0.85348  Biso   1.000  C
  O99      1.0000 0.82468  0.99723  0.91325  Biso   1.000  O
  H47      1.0000 0.77222  0.03436  0.64440  Biso   1.000  H
  C111     1.0000 0.75922  0.02171  0.69320  Biso   1.000  C
  H48      1.0000 0.85481  0.03106  0.73188  Biso   1.000  H
  C112     1.0000 0.80461  0.02002  0.74176  Biso   1.000  C
  O100     1.0000 0.89907  0.99981  0.83333  Biso   1.000  O
  Zr13     1.0000 0.11932  0.00146  0.99767  Biso   1.000  Zr
  Zr14     1.0000 0.88018  0.99991  0.00521  Biso   1.000  Zr
  Zr15     1.0000 0.99545  0.99661  0.88153  Biso   1.000  Zr
  H49      1.0000 0.63977  0.02664  0.23031  Biso   1.000  H
  C113     1.0000 0.68943  0.01351  0.24034  Biso   1.000  C
  C114     1.0000 0.65286  0.99714  0.35232  Biso   1.000  C
  C115     1.0000 0.70475  0.99658  0.30398  Biso   1.000  C
  H50      1.0000 0.72365  0.02812  0.14363  Biso   1.000  H
  C116     1.0000 0.73547  0.01421  0.19238  Biso   1.000  C
  C117     1.0000 0.79950  0.99785  0.20794  Biso   1.000  C
  C118     1.0000 0.85041  0.99923  0.15751  Biso   1.000  C
  O101     1.0000 0.83042  0.00009  0.09940  Biso   1.000  O
  C119     1.0000 0.76950  0.97912  0.31962  Biso   1.000  C
  H51      1.0000 0.86564  0.96862  0.28073  Biso   1.000  H
  C120     1.0000 0.81582  0.98078  0.27015  Biso   1.000  C
  O102     1.0000 0.90942  0.00024  0.17522  Biso   1.000  O
  H52      1.0000 0.37426  0.99772  0.22080  Biso   1.000  H
  C121     1.0000 0.32343  0.00404  0.23176  Biso   1.000  C
  C122     1.0000 0.35403  0.00690  0.34761  Biso   1.000  C
  C123     1.0000 0.30482  0.01080  0.29538  Biso   1.000  C
  C124     1.0000 0.27795  0.00483  0.18135  Biso   1.000  C
  C125     1.0000 0.21136  0.01196  0.19745  Biso   1.000  C
  C126     1.0000 0.15904  0.00883  0.14936  Biso   1.000  C
  O103     1.0000 0.17492  0.00524  0.08952  Biso   1.000  O
  H53      1.0000 0.22562  0.02605  0.36089  Biso   1.000  H
  C127     1.0000 0.23934  0.01973  0.31109  Biso   1.000  C
  H54      1.0000 0.14327  0.02626  0.27300  Biso   1.000  H
  C128     1.0000 0.19413  0.02006  0.26241  Biso   1.000  C
  O104     1.0000 0.10052  0.00838  0.16939  Biso   1.000  O
  Zr16     1.0000 0.00392  0.00384  0.12171  Biso   1.000  Zr
  H55      1.0000 0.27699  0.86568  0.96209  Biso   1.000  H
  C129     1.0000 0.26760  0.81661  0.97686  Biso   1.000  C
  O105     1.0000 0.17203  0.90823  0.99457  Biso   1.000  O
  C130     1.0000 0.15387  0.84965  0.99633  Biso   1.000  C
  C131     1.0000 0.20549  0.79982  0.99536  Biso   1.000  C
  C132     1.0000 0.31847  0.77168  0.97714  Biso   1.000  C
  C133     1.0000 0.30410  0.70788  0.99703  Biso   1.000  C
  C134     1.0000 0.35224  0.65590  0.99716  Biso   1.000  C
  H56      1.0000 0.14296  0.72470  0.03016  Biso   1.000  H
  C135     1.0000 0.19146  0.73678  0.01495  Biso   1.000  C
  O106     1.0000 0.09551  0.83022  0.00020  Biso   1.000  O
  H57      1.0000 0.23169  0.64327  0.03104  Biso   1.000  H
  C136     1.0000 0.24064  0.69215  0.01551  Biso   1.000  C
  H58      1.0000 0.28342  0.13879  0.01818  Biso   1.000  H
  C137     1.0000 0.26943  0.18850  0.01195  Biso   1.000  C
  O107     1.0000 0.17213  0.09485  0.99731  Biso   1.000  O
  C138     1.0000 0.15321  0.15324  0.99919  Biso   1.000  C
  C139     1.0000 0.20394  0.20407  0.00260  Biso   1.000  C
  H59      1.0000 0.36526  0.22688  0.02047  Biso   1.000  H
  C140     1.0000 0.31446  0.23745  0.01359  Biso   1.000  C
  C141     1.0000 0.29712  0.30252  0.00632  Biso   1.000  C
  C142     1.0000 0.34839  0.35176  0.00566  Biso   1.000  C
  H60      1.0000 0.13465  0.27853  0.98950  Biso   1.000  H
  C143     1.0000 0.18544  0.26761  0.99601  Biso   1.000  C
  O108     1.0000 0.09432  0.17162  0.99729  Biso   1.000  O
  C144     1.0000 0.23050  0.31823  0.99770  Biso   1.000  C
  Zr17     1.0000 0.99898  0.12084  0.99801  Biso   1.000  Zr
  Zr18     1.0000 0.99978  0.88078  0.00470  Biso   1.000  Zr
  O109     1.0000 0.06967  0.93534  0.06859  Biso   1.000  O
  O110     1.0000 0.06442  0.06639  0.93026  Biso   1.000  O
  O111     1.0000 0.04773  0.94961  0.95138  Biso   1.000  O
  O112     1.0000 0.05059  0.05212  0.04848  Biso   1.000  O
  H61      1.0000 0.71705  0.13548  0.02583  Biso   1.000  H
  C145     1.0000 0.72899  0.18424  0.01225  Biso   1.000  C
  O113     1.0000 0.82641  0.09155  0.00204  Biso   1.000  O
  C146     1.0000 0.84447  0.14996  0.99701  Biso   1.000  C
  C147     1.0000 0.79284  0.19954  0.99500  Biso   1.000  C
  H62      1.0000 0.63406  0.22294  0.02713  Biso   1.000  H
  C148     1.0000 0.68341  0.23258  0.01260  Biso   1.000  C
  C149     1.0000 0.69886  0.29617  0.99558  Biso   1.000  C
  C150     1.0000 0.64808  0.34533  0.99821  Biso   1.000  C
  H63      1.0000 0.85887  0.27171  0.96438  Biso   1.000  H
  C151     1.0000 0.80919  0.26146  0.97730  Biso   1.000  C
  O114     1.0000 0.90294  0.16933  0.99476  Biso   1.000  O
  C152     1.0000 0.76331  0.31125  0.97634  Biso   1.000  C
  C153     1.0000 0.72754  0.81384  0.02546  Biso   1.000  C
  O115     1.0000 0.82812  0.90657  0.01386  Biso   1.000  O
  C154     1.0000 0.84556  0.84722  0.01368  Biso   1.000  C
  C155     1.0000 0.79377  0.79833  0.01521  Biso   1.000  C
  H64      1.0000 0.63106  0.77453  0.02866  Biso   1.000  H
  C156     1.0000 0.68196  0.76380  0.02251  Biso   1.000  C
  C157     1.0000 0.70041  0.70074  0.01145  Biso   1.000  C
  C158     1.0000 0.65058  0.64934  0.00639  Biso   1.000  C
  H65      1.0000 0.86205  0.72359  0.99835  Biso   1.000  H
  C159     1.0000 0.81121  0.73384  0.00525  Biso   1.000  C
  O116     1.0000 0.90418  0.82838  0.01078  Biso   1.000  O
  H66      1.0000 0.77985  0.63569  0.99623  Biso   1.000  H
  C160     1.0000 0.76597  0.68523  0.00366  Biso   1.000  C
  O117     1.0000 0.93386  0.06943  0.06927  Biso   1.000  O
  O118     1.0000 0.93017  0.93042  0.93796  Biso   1.000  O
  O119     1.0000 0.94802  0.04848  0.95167  Biso   1.000  O
  O120     1.0000 0.95190  0.95187  0.05444  Biso   1.000  O
  H67      1.0000 0.09794  0.90991  0.09543  Biso   1.000  H
  H68      1.0000 0.09065  0.09299  0.90250  Biso   1.000  H
  O121     1.0000 0.00032  0.82543  0.91283  Biso   1.000  O
  O122     1.0000 0.00032  0.83096  0.09787  Biso   1.000  O
  H69      1.0000 0.90230  0.90308  0.91261  Biso   1.000  H
  H70      1.0000 0.90743  0.09683  0.09605  Biso   1.000  H
  O123     1.0000 0.00348  0.17527  0.09072  Biso   1.000  O
  O124     1.0000 0.99403  0.16927  0.90294  Biso   1.000  O
  O125     1.0000 0.99720  0.89958  0.83312  Biso   1.000  O
  O126     1.0000 0.99217  0.09036  0.82781  Biso   1.000  O
  O127     1.0000 0.00775  0.09947  0.16909  Biso   1.000  O
  O128     1.0000 0.00268  0.90871  0.17456  Biso   1.000  O
  H71      1.0000 0.98961  0.27443  0.86309  Biso   1.000  H
  C161     1.0000 0.99143  0.26437  0.81201  Biso   1.000  C
  C162     1.0000 0.99224  0.14998  0.84454  Biso   1.000  C
  C163     1.0000 0.99190  0.19927  0.79352  Biso   1.000  C
  H72      1.0000 0.99323  0.36365  0.78240  Biso   1.000  H
  C164     1.0000 0.99365  0.31375  0.76777  Biso   1.000  C
  C165     1.0000 0.99651  0.29830  0.70208  Biso   1.000  C
  C166     1.0000 0.99809  0.34911  0.65183  Biso   1.000  C
  C167     1.0000 0.99436  0.18376  0.72689  Biso   1.000  C
  H73      1.0000 0.99854  0.22408  0.63152  Biso   1.000  H
  C168     1.0000 0.99677  0.23464  0.68252  Biso   1.000  C
  C169     1.0000 0.00281  0.72295  0.82111  Biso   1.000  C
  C170     1.0000 0.00004  0.84155  0.85294  Biso   1.000  C
  C171     1.0000 0.00232  0.78941  0.80457  Biso   1.000  C
  H74      1.0000 0.00373  0.62664  0.78243  Biso   1.000  H
  C172     1.0000 0.00434  0.67747  0.77100  Biso   1.000  C
  C173     1.0000 0.00562  0.69588  0.70693  Biso   1.000  C
  C174     1.0000 0.00437  0.64626  0.65500  Biso   1.000  C
  H75      1.0000 0.00440  0.85746  0.72810  Biso   1.000  H
  C175     1.0000 0.00429  0.80662  0.73920  Biso   1.000  C
  H76      1.0000 0.00765  0.77521  0.64055  Biso   1.000  H
  C176     1.0000 0.00605  0.76140  0.69069  Biso   1.000  C
  H77      1.0000 0.00904  0.28877  0.13371  Biso   1.000  H
  C177     1.0000 0.00987  0.27446  0.18375  Biso   1.000  C
  C178     1.0000 0.00742  0.15773  0.14942  Biso   1.000  C
  C179     1.0000 0.01030  0.20881  0.19967  Biso   1.000  C
  H78      1.0000 0.00885  0.37027  0.22198  Biso   1.000  H
  C180     1.0000 0.00985  0.31935  0.23276  Biso   1.000  C
  C181     1.0000 0.01021  0.30160  0.29816  Biso   1.000  C
  C182     1.0000 0.00549  0.35222  0.34782  Biso   1.000  C
  H79      1.0000 0.01302  0.13927  0.27468  Biso   1.000  H
  C183     1.0000 0.01213  0.19013  0.26355  Biso   1.000  C
  C184     1.0000 0.01240  0.23494  0.31406  Biso   1.000  C
  H80      1.0000 0.99753  0.72075  0.13922  Biso   1.000  H
  C185     1.0000 0.99882  0.73405  0.18951  Biso   1.000  C
  C186     1.0000 0.00079  0.85025  0.15624  Biso   1.000  C
  C187     1.0000 0.00015  0.79934  0.20656  Biso   1.000  C
  H81      1.0000 0.99737  0.63760  0.22612  Biso   1.000  H
  C188     1.0000 0.99879  0.68836  0.23762  Biso   1.000  C
  C189     1.0000 0.99984  0.70521  0.30313  Biso   1.000  C
  C190     1.0000 0.99770  0.65350  0.35157  Biso   1.000  C
  H82      1.0000 0.00297  0.86794  0.28243  Biso   1.000  H
  C191     1.0000 0.00148  0.81722  0.27068  Biso   1.000  C
  C192     1.0000 0.00127  0.77151  0.32031  Biso   1.000  C
  N1       1.0000 0.00454  0.79339  0.38271  Biso   1.000  N
  H83      1.0000 0.99274  0.76059  0.41679  Biso   1.000  H
  H84      1.0000 0.98973  0.83905  0.38984  Biso   1.000  H
  N2       1.0000 0.99285  0.12203  0.70397  Biso   1.000  N
  H85      1.0000 0.01019  0.11486  0.65917  Biso   1.000  H
  H86      1.0000 0.00021  0.08703  0.73712  Biso   1.000  H
  N3       1.0000 0.50198  0.37709  0.29475  Biso   1.000  N
  H87      1.0000 0.52167  0.38320  0.33876  Biso   1.000  H
  H88      1.0000 0.51114  0.41155  0.26149  Biso   1.000  H
  N4       1.0000 0.45517  0.62864  0.71416  Biso   1.000  N
  H89      1.0000 0.42689  0.62619  0.67469  Biso   1.000  H
  H90      1.0000 0.44979  0.59389  0.74780  Biso   1.000  H
  N5       1.0000 0.78949  0.96187  0.38003  Biso   1.000  N
  H91      1.0000 0.82941  0.93421  0.38306  Biso   1.000  H
  H92      1.0000 0.75488  0.95425  0.41356  Biso   1.000  H
  N6       1.0000 0.79242  0.87766  0.52586  Biso   1.000  N
  H93      1.0000 0.75796  0.91058  0.53674  Biso   1.000  H
  H94      1.0000 0.83380  0.88085  0.55152  Biso   1.000  H
  N7       1.0000 0.79511  0.51877  0.87883  Biso   1.000  N
  H95      1.0000 0.83624  0.54479  0.88174  Biso   1.000  H
  H96      1.0000 0.76028  0.52953  0.91139  Biso   1.000  H
  N8       1.0000 0.78368  0.37102  0.95817  Biso   1.000  N
  H97      1.0000 0.74999  0.40551  0.95133  Biso   1.000  H
  H98      1.0000 0.82431  0.37383  0.93148  Biso   1.000  H
  N9       1.0000 0.70123  0.97741  0.88169  Biso   1.000  N
  H99      1.0000 0.73559  0.97031  0.91568  Biso   1.000  H
  H100     1.0000 0.65969  0.95241  0.88607  Biso   1.000  H
  N10      1.0000 0.70396  0.37854  0.50531  Biso   1.000  N
  H101     1.0000 0.65786  0.38502  0.49088  Biso   1.000  H
  H102     1.0000 0.73622  0.41340  0.49435  Biso   1.000  H
  N11      1.0000 0.71313  0.54544  0.37374  Biso   1.000  N
  H103     1.0000 0.74793  0.55544  0.40649  Biso   1.000  H
  H104     1.0000 0.67415  0.57470  0.37390  Biso   1.000  H
  N12      1.0000 0.70555  0.87542  0.03616  Biso   1.000  N
  H105     1.0000 0.66384  0.87879  0.06124  Biso   1.000  H
  H106     1.0000 0.74013  0.90813  0.04736  Biso   1.000  H
  N13      1.0000 0.29982  0.99965  0.11942  Biso   1.000  N
  H107     1.0000 0.26568  0.99231  0.08522  Biso   1.000  H
  H108     1.0000 0.34389  0.97999  0.11285  Biso   1.000  H
  N14      1.0000 0.20765  0.37953  0.99189  Biso   1.000  N
  H109     1.0000 0.16338  0.38550  0.97253  Biso   1.000  H
  H110     1.0000 0.24075  0.41483  0.98617  Biso   1.000  H
  N15      1.0000 0.52270  0.20588  0.88290  Biso   1.000  N
  H111     1.0000 0.52996  0.24017  0.91684  Biso   1.000  H
  H112     1.0000 0.54646  0.16388  0.88842  Biso   1.000  H
  N16      1.0000 0.47635  0.62781  0.28979  Biso   1.000  N
  H113     1.0000 0.44965  0.62503  0.33039  Biso   1.000  H
  H114     1.0000 0.46720  0.59430  0.25560  Biso   1.000  H
  N17      1.0000 0.28569  0.45989  0.37373  Biso   1.000  N
  H115     1.0000 0.32509  0.43130  0.37527  Biso   1.000  H
  H116     1.0000 0.25137  0.45193  0.40749  Biso   1.000  H
  N18      1.0000 0.29179  0.37719  0.52393  Biso   1.000  N
  H117     1.0000 0.25712  0.41024  0.53358  Biso   1.000  H
  H118     1.0000 0.33310  0.38069  0.54961  Biso   1.000  H
  N19      1.0000 0.37158  0.03492  0.78815  Biso   1.000  N
  H119     1.0000 0.40602  0.04188  0.75420  Biso   1.000  H
  H120     1.0000 0.37305  0.06378  0.82718  Biso   1.000  H
  N20      1.0000 0.37907  0.79131  0.95920  Biso   1.000  N
  H121     1.0000 0.41331  0.75680  0.95422  Biso   1.000  H
  H122     1.0000 0.38183  0.82941  0.92926  Biso   1.000  H
  N21      1.0000 0.20940  0.53689  0.87614  Biso   1.000  N
  H123     1.0000 0.24467  0.54744  0.90833  Biso   1.000  H
  H124     1.0000 0.16920  0.56432  0.87837  Biso   1.000  H
  N22      1.0000 0.20534  0.87623  0.48220  Biso   1.000  N
  H125     1.0000 0.16226  0.88068  0.45988  Biso   1.000  H
  H126     1.0000 0.23884  0.91091  0.47467  Biso   1.000  H
  N23      1.0000 0.99931  0.70138  0.88341  Biso   1.000  N
  H127     1.0000 0.00787  0.73486  0.91785  Biso   1.000  H
  H128     1.0000 0.01422  0.65600  0.89181  Biso   1.000  H
  N24      1.0000 0.01629  0.21181  0.37571  Biso   1.000  N
  H129     1.0000 0.00327  0.16556  0.38235  Biso   1.000  H
  H130     1.0000 0.00596  0.24380  0.41095  Biso   1.000  H
