data_image0
_cell_length_a       20.7722
_cell_length_b       20.8916
_cell_length_c       20.8654
_cell_angle_alpha    90
_cell_angle_beta     90
_cell_angle_gamma    90

_symmetry_space_group_name_H-M    "P 1"
_symmetry_int_tables_number       1

loop_
  _symmetry_equiv_pos_as_xyz
  'x, y, z'

loop_
  _atom_site_label
  _atom_site_occupancy
  _atom_site_fract_x
  _atom_site_fract_y
  _atom_site_fract_z
  _atom_site_thermal_displace_type
  _atom_site_B_iso_or_equiv
  _atom_site_type_symbol
  H1       1.0000 0.49616  0.27706  0.36976  Biso   1.000  H
  C1       1.0000 0.49365  0.26654  0.31870  Biso   1.000  C
  O1       1.0000 0.49929  0.17056  0.40751  Biso   1.000  O
  C2       1.0000 0.49732  0.15204  0.34896  Biso   1.000  C
  C3       1.0000 0.49259  0.20290  0.29923  Biso   1.000  C
  C4       1.0000 0.49204  0.31700  0.27407  Biso   1.000  C
  C5       1.0000 0.48986  0.30082  0.20760  Biso   1.000  C
  C6       1.0000 0.49367  0.34935  0.15632  Biso   1.000  C
  O2       1.0000 0.49747  0.40881  0.17333  Biso   1.000  O
  H2       1.0000 0.48661  0.13674  0.21976  Biso   1.000  H
  C7       1.0000 0.48830  0.18682  0.23382  Biso   1.000  C
  O3       1.0000 0.50036  0.09404  0.32956  Biso   1.000  O
  H3       1.0000 0.48461  0.22557  0.13814  Biso   1.000  H
  C8       1.0000 0.48702  0.23581  0.18922  Biso   1.000  C
  O4       1.0000 0.49481  0.33013  0.09804  Biso   1.000  O
  Zr1      1.0000 0.50067  0.12014  0.50083  Biso   1.000  Zr
  H4       1.0000 0.59720  0.09465  0.40792  Biso   1.000  H
  O5       1.0000 0.56989  0.06784  0.43448  Biso   1.000  O
  O6       1.0000 0.45190  0.05010  0.45017  Biso   1.000  O
  H5       1.0000 0.40460  0.09427  0.59385  Biso   1.000  H
  O7       1.0000 0.43191  0.06774  0.56706  Biso   1.000  O
  O8       1.0000 0.54997  0.05074  0.55187  Biso   1.000  O
  H6       1.0000 0.36335  0.46125  0.27285  Biso   1.000  H
  C9       1.0000 0.31345  0.47392  0.26298  Biso   1.000  C
  O9       1.0000 0.40548  0.49749  0.17038  Biso   1.000  O
  C10      1.0000 0.34685  0.49565  0.15113  Biso   1.000  C
  C11      1.0000 0.29604  0.49130  0.20106  Biso   1.000  C
  C12      1.0000 0.26800  0.47279  0.31320  Biso   1.000  C
  C13      1.0000 0.20342  0.49123  0.29827  Biso   1.000  C
  C14      1.0000 0.15269  0.49572  0.34735  Biso   1.000  C
  O10      1.0000 0.17050  0.49504  0.40658  Biso   1.000  O
  H7       1.0000 0.21921  0.51921  0.13680  Biso   1.000  H
  C15      1.0000 0.23180  0.50670  0.18578  Biso   1.000  C
  O11      1.0000 0.32833  0.49889  0.09268  Biso   1.000  O
  H8       1.0000 0.13678  0.51943  0.22528  Biso   1.000  H
  C16      1.0000 0.18672  0.50668  0.23454  Biso   1.000  C
  O12      1.0000 0.09402  0.50151  0.32871  Biso   1.000  O
  Zr2      1.0000 0.49985  0.50062  0.11986  Biso   1.000  Zr
  H9       1.0000 0.63555  0.53681  0.27513  Biso   1.000  H
  C17      1.0000 0.68569  0.52516  0.26516  Biso   1.000  C
  O13      1.0000 0.59391  0.50472  0.17151  Biso   1.000  O
  C18      1.0000 0.65267  0.50504  0.15278  Biso   1.000  C
  C19      1.0000 0.70331  0.50870  0.20299  Biso   1.000  C
  C20      1.0000 0.73121  0.52659  0.31517  Biso   1.000  C
  C21      1.0000 0.79622  0.51037  0.29995  Biso   1.000  C
  C22      1.0000 0.84759  0.50821  0.34873  Biso   1.000  C
  O14      1.0000 0.83014  0.50826  0.40811  Biso   1.000  O
  H10      1.0000 0.78028  0.48139  0.13868  Biso   1.000  H
  C23      1.0000 0.76767  0.49405  0.18763  Biso   1.000  C
  O15      1.0000 0.67174  0.50117  0.09451  Biso   1.000  O
  H11      1.0000 0.86315  0.48346  0.22666  Biso   1.000  H
  C24      1.0000 0.81299  0.49510  0.23620  Biso   1.000  C
  O16      1.0000 0.90617  0.50509  0.32955  Biso   1.000  O
  Zr3      1.0000 0.50337  0.00038  0.38092  Biso   1.000  Zr
  O17      1.0000 0.50126  0.17167  0.59471  Biso   1.000  O
  O18      1.0000 0.50086  0.59307  0.17119  Biso   1.000  O
  O19      1.0000 0.40675  0.17027  0.49678  Biso   1.000  O
  O20      1.0000 0.59472  0.17027  0.50584  Biso   1.000  O
  O21      1.0000 0.41018  0.00296  0.32905  Biso   1.000  O
  O22      1.0000 0.59847  0.99886  0.33189  Biso   1.000  O
  O23      1.0000 0.50786  0.90692  0.32945  Biso   1.000  O
  Zr4      1.0000 0.12022  0.49995  0.49996  Biso   1.000  Zr
  Zr5      1.0000 0.88196  0.50054  0.50102  Biso   1.000  Zr
  Zr6      1.0000 0.49948  0.37923  0.00288  Biso   1.000  Zr
  Zr7      1.0000 0.49893  0.00024  0.62020  Biso   1.000  Zr
  Zr8      1.0000 0.00054  0.50224  0.37974  Biso   1.000  Zr
  Zr9      1.0000 0.61997  0.49893  0.00188  Biso   1.000  Zr
  Zr10     1.0000 0.38125  0.50083  0.00032  Biso   1.000  Zr
  Zr11     1.0000 0.62010  0.00100  0.50330  Biso   1.000  Zr
  Zr12     1.0000 0.38113  0.00051  0.49892  Biso   1.000  Zr
  O24      1.0000 0.43465  0.93295  0.43207  Biso   1.000  O
  O25      1.0000 0.43294  0.56855  0.06696  Biso   1.000  O
  O26      1.0000 0.56733  0.43212  0.06940  Biso   1.000  O
  O27      1.0000 0.55150  0.95066  0.45218  Biso   1.000  O
  O28      1.0000 0.44994  0.45048  0.05100  Biso   1.000  O
  O29      1.0000 0.55075  0.55009  0.05081  Biso   1.000  O
  H12      1.0000 0.49794  0.72377  0.36769  Biso   1.000  H
  C25      1.0000 0.50281  0.73456  0.31686  Biso   1.000  C
  O30      1.0000 0.50560  0.82995  0.40697  Biso   1.000  O
  C26      1.0000 0.50798  0.84872  0.34850  Biso   1.000  C
  C27      1.0000 0.50946  0.79808  0.29819  Biso   1.000  C
  C28      1.0000 0.50184  0.68440  0.27178  Biso   1.000  C
  C29      1.0000 0.50777  0.70075  0.20551  Biso   1.000  C
  C30      1.0000 0.50439  0.65245  0.15384  Biso   1.000  C
  H13      1.0000 0.52142  0.86426  0.21942  Biso   1.000  H
  C31      1.0000 0.51606  0.81428  0.23295  Biso   1.000  C
  H14      1.0000 0.51917  0.77604  0.13696  Biso   1.000  H
  C32      1.0000 0.51503  0.76564  0.18792  Biso   1.000  C
  O31      1.0000 0.50396  0.67133  0.09544  Biso   1.000  O
  Zr13     1.0000 0.50069  0.88046  0.50064  Biso   1.000  Zr
  H15      1.0000 0.40758  0.90628  0.40514  Biso   1.000  H
  H16      1.0000 0.59349  0.90641  0.59719  Biso   1.000  H
  O32      1.0000 0.56706  0.93294  0.56954  Biso   1.000  O
  O33      1.0000 0.45018  0.95045  0.54960  Biso   1.000  O
  O34      1.0000 0.49597  0.82962  0.59433  Biso   1.000  O
  O35      1.0000 0.59659  0.83030  0.49919  Biso   1.000  O
  O36      1.0000 0.40582  0.82971  0.50220  Biso   1.000  O
  Zr14     1.0000 0.50152  0.61962  0.99989  Biso   1.000  Zr
  H17      1.0000 0.48091  0.27945  0.63931  Biso   1.000  H
  C33      1.0000 0.49325  0.26688  0.68835  Biso   1.000  C
  C34      1.0000 0.50385  0.15254  0.65295  Biso   1.000  C
  C35      1.0000 0.50794  0.20279  0.70348  Biso   1.000  C
  H18      1.0000 0.48192  0.36157  0.72781  Biso   1.000  H
  C36      1.0000 0.49391  0.31172  0.73710  Biso   1.000  C
  C37      1.0000 0.50920  0.29507  0.80087  Biso   1.000  C
  C38      1.0000 0.50624  0.34603  0.84972  Biso   1.000  C
  O37      1.0000 0.50260  0.40427  0.83032  Biso   1.000  O
  H19      1.0000 0.53628  0.13541  0.77545  Biso   1.000  H
  C39      1.0000 0.52467  0.18530  0.76560  Biso   1.000  C
  O38      1.0000 0.50178  0.09418  0.67179  Biso   1.000  O
  C40      1.0000 0.52635  0.23052  0.81586  Biso   1.000  C
  O39      1.0000 0.50612  0.32893  0.90911  Biso   1.000  O
  H20      1.0000 0.64008  0.46261  0.72949  Biso   1.000  H
  C41      1.0000 0.69020  0.47496  0.73836  Biso   1.000  C
  O40      1.0000 0.59707  0.49267  0.83135  Biso   1.000  O
  C42      1.0000 0.65569  0.49377  0.85027  Biso   1.000  C
  C43      1.0000 0.70722  0.49162  0.80173  Biso   1.000  C
  H21      1.0000 0.72209  0.46098  0.64054  Biso   1.000  H
  C44      1.0000 0.73500  0.47426  0.68928  Biso   1.000  C
  C45      1.0000 0.79912  0.49059  0.70385  Biso   1.000  C
  C46      1.0000 0.84902  0.49283  0.65273  Biso   1.000  C
  O41      1.0000 0.82946  0.49473  0.59465  Biso   1.000  O
  C47      1.0000 0.77243  0.50740  0.81651  Biso   1.000  C
  O42      1.0000 0.67328  0.49766  0.90963  Biso   1.000  O
  H22      1.0000 0.86750  0.51814  0.77538  Biso   1.000  H
  C48      1.0000 0.81732  0.50625  0.76604  Biso   1.000  C
  O43      1.0000 0.90784  0.49431  0.67129  Biso   1.000  O
  Zr15     1.0000 0.50169  0.49766  0.88147  Biso   1.000  Zr
  H23      1.0000 0.36558  0.48487  0.72558  Biso   1.000  H
  C49      1.0000 0.31525  0.49589  0.73489  Biso   1.000  C
  O44      1.0000 0.40753  0.50107  0.82923  Biso   1.000  O
  C50      1.0000 0.34891  0.50573  0.84789  Biso   1.000  C
  C51      1.0000 0.29803  0.50967  0.79881  Biso   1.000  C
  H24      1.0000 0.28327  0.48465  0.63683  Biso   1.000  H
  C52      1.0000 0.27022  0.49537  0.68611  Biso   1.000  C
  C53      1.0000 0.20548  0.50800  0.70155  Biso   1.000  C
  C54      1.0000 0.15484  0.50306  0.65132  Biso   1.000  C
  O45      1.0000 0.17390  0.49990  0.59304  Biso   1.000  O
  C55      1.0000 0.23297  0.52570  0.81396  Biso   1.000  C
  O46      1.0000 0.33078  0.50562  0.90702  Biso   1.000  O
  H25      1.0000 0.13698  0.53310  0.77380  Biso   1.000  H
  C56      1.0000 0.18752  0.52339  0.76386  Biso   1.000  C
  O47      1.0000 0.09635  0.50089  0.67053  Biso   1.000  O
  O48      1.0000 0.49895  0.59139  0.82930  Biso   1.000  O
  O49      1.0000 0.59124  0.00231  0.67318  Biso   1.000  O
  O50      1.0000 0.40557  0.99932  0.66978  Biso   1.000  O
  O51      1.0000 0.49523  0.90637  0.67209  Biso   1.000  O
  Zr16     1.0000 0.00159  0.49734  0.62090  Biso   1.000  Zr
  O52      1.0000 0.56902  0.56615  0.93329  Biso   1.000  O
  O53      1.0000 0.43322  0.43197  0.93367  Biso   1.000  O
  O54      1.0000 0.55014  0.44889  0.95236  Biso   1.000  O
  O55      1.0000 0.45190  0.54930  0.95037  Biso   1.000  O
  H26      1.0000 0.47548  0.72366  0.63384  Biso   1.000  H
  C57      1.0000 0.48227  0.73423  0.68451  Biso   1.000  C
  C58      1.0000 0.49389  0.84823  0.65285  Biso   1.000  C
  C59      1.0000 0.49140  0.79745  0.70307  Biso   1.000  C
  C60      1.0000 0.48186  0.68389  0.72966  Biso   1.000  C
  C61      1.0000 0.49264  0.69976  0.79549  Biso   1.000  C
  C62      1.0000 0.49706  0.65084  0.84636  Biso   1.000  C
  H27      1.0000 0.50672  0.86327  0.78162  Biso   1.000  H
  C63      1.0000 0.50003  0.81343  0.76818  Biso   1.000  C
  H28      1.0000 0.50959  0.77478  0.86338  Biso   1.000  H
  C64      1.0000 0.50098  0.76459  0.81294  Biso   1.000  C
  O56      1.0000 0.50004  0.67015  0.90481  Biso   1.000  O
  H29      1.0000 0.40581  0.59532  0.09372  Biso   1.000  H
  H30      1.0000 0.59399  0.40535  0.09663  Biso   1.000  H
  C65      1.0000 0.27113  0.31472  0.50783  Biso   1.000  C
  O57      1.0000 0.17231  0.40739  0.49781  Biso   1.000  O
  C66      1.0000 0.15444  0.34819  0.49411  Biso   1.000  C
  C67      1.0000 0.20597  0.29971  0.49210  Biso   1.000  C
  H31      1.0000 0.36628  0.27396  0.51883  Biso   1.000  H
  C68      1.0000 0.31610  0.26447  0.50706  Biso   1.000  C
  C69      1.0000 0.29801  0.20222  0.49191  Biso   1.000  C
  C70      1.0000 0.34811  0.15146  0.49424  Biso   1.000  C
  H32      1.0000 0.13896  0.22722  0.46325  Biso   1.000  H
  C71      1.0000 0.18899  0.23631  0.47589  Biso   1.000  C
  O58      1.0000 0.09582  0.32945  0.49333  Biso   1.000  O
  H33      1.0000 0.22118  0.13847  0.46337  Biso   1.000  H
  C72      1.0000 0.23393  0.18741  0.47576  Biso   1.000  C
  O59      1.0000 0.32877  0.09333  0.49496  Biso   1.000  O
  H34      1.0000 0.28414  0.63576  0.51566  Biso   1.000  H
  C73      1.0000 0.26991  0.68575  0.51258  Biso   1.000  C
  O60      1.0000 0.17326  0.59254  0.50435  Biso   1.000  O
  C74      1.0000 0.15404  0.65069  0.50702  Biso   1.000  C
  C75      1.0000 0.20408  0.70160  0.50869  Biso   1.000  C
  H35      1.0000 0.36588  0.72502  0.51415  Biso   1.000  H
  C76      1.0000 0.31450  0.73490  0.51180  Biso   1.000  C
  C77      1.0000 0.29586  0.79978  0.50718  Biso   1.000  C
  C78      1.0000 0.34705  0.84851  0.50314  Biso   1.000  C
  H36      1.0000 0.13304  0.77540  0.50230  Biso   1.000  H
  C79      1.0000 0.18433  0.76504  0.50507  Biso   1.000  C
  O61      1.0000 0.09519  0.66917  0.50709  Biso   1.000  O
  C80      1.0000 0.22901  0.81574  0.50438  Biso   1.000  C
  O62      1.0000 0.32950  0.90779  0.49936  Biso   1.000  O
  O63      1.0000 0.32887  0.40810  0.00155  Biso   1.000  O
  O64      1.0000 0.32892  0.59459  0.99743  Biso   1.000  O
  Zr17     1.0000 0.00153  0.61894  0.50352  Biso   1.000  Zr
  Zr18     1.0000 0.00057  0.38067  0.49850  Biso   1.000  Zr
  O65      1.0000 0.06860  0.43120  0.56678  Biso   1.000  O
  O66      1.0000 0.06848  0.56855  0.43379  Biso   1.000  O
  O67      1.0000 0.05006  0.45126  0.44952  Biso   1.000  O
  O68      1.0000 0.05142  0.54858  0.55176  Biso   1.000  O
  H37      1.0000 0.40608  0.40541  0.90670  Biso   1.000  H
  H38      1.0000 0.59641  0.59268  0.90656  Biso   1.000  H
  H39      1.0000 0.71973  0.63789  0.48461  Biso   1.000  H
  C81      1.0000 0.73347  0.68751  0.49209  Biso   1.000  C
  O69      1.0000 0.82910  0.59402  0.50096  Biso   1.000  O
  C82      1.0000 0.84865  0.65214  0.50220  Biso   1.000  C
  C83      1.0000 0.79852  0.70296  0.50280  Biso   1.000  C
  H40      1.0000 0.63790  0.72700  0.48300  Biso   1.000  H
  C84      1.0000 0.68868  0.73645  0.49166  Biso   1.000  C
  C85      1.0000 0.70656  0.80066  0.50255  Biso   1.000  C
  C86      1.0000 0.65506  0.84931  0.50184  Biso   1.000  C
  H41      1.0000 0.86796  0.77579  0.52297  Biso   1.000  H
  C87      1.0000 0.81724  0.76581  0.51431  Biso   1.000  C
  O70      1.0000 0.90738  0.67061  0.50372  Biso   1.000  O
  C88      1.0000 0.77227  0.81616  0.51526  Biso   1.000  C
  O71      1.0000 0.67290  0.90849  0.50471  Biso   1.000  O
  C89      1.0000 0.72893  0.31665  0.51158  Biso   1.000  C
  O72      1.0000 0.82949  0.40834  0.50110  Biso   1.000  O
  C90      1.0000 0.84691  0.34895  0.50408  Biso   1.000  C
  C91      1.0000 0.79573  0.30036  0.50919  Biso   1.000  C
  H42      1.0000 0.63272  0.27662  0.51313  Biso   1.000  H
  C92      1.0000 0.68405  0.26611  0.51200  Biso   1.000  C
  C93      1.0000 0.70364  0.20254  0.51058  Biso   1.000  C
  C94      1.0000 0.65350  0.15177  0.50791  Biso   1.000  C
  H43      1.0000 0.86559  0.22512  0.50817  Biso   1.000  H
  C95      1.0000 0.81424  0.23531  0.50935  Biso   1.000  C
  O73      1.0000 0.90557  0.33002  0.50134  Biso   1.000  O
  H44      1.0000 0.78363  0.13624  0.50922  Biso   1.000  H
  C96      1.0000 0.76949  0.18633  0.51002  Biso   1.000  C
  O74      1.0000 0.67290  0.09360  0.50645  Biso   1.000  O
  O75      1.0000 0.67329  0.59247  0.00395  Biso   1.000  O
  O76      1.0000 0.66956  0.40515  0.99636  Biso   1.000  O
  O77      1.0000 0.93381  0.56593  0.57009  Biso   1.000  O
  O78      1.0000 0.93299  0.43442  0.43188  Biso   1.000  O
  O79      1.0000 0.95151  0.55077  0.45193  Biso   1.000  O
  O80      1.0000 0.95114  0.44925  0.55004  Biso   1.000  O
  H45      1.0000 0.09576  0.40374  0.59277  Biso   1.000  H
  H46      1.0000 0.09562  0.59540  0.40710  Biso   1.000  H
  O81      1.0000 0.00215  0.33103  0.40507  Biso   1.000  O
  O82      1.0000 0.99837  0.32754  0.59106  Biso   1.000  O
  H47      1.0000 0.90588  0.40769  0.40504  Biso   1.000  H
  H48      1.0000 0.90702  0.59215  0.59769  Biso   1.000  H
  O83      1.0000 0.00454  0.66876  0.59802  Biso   1.000  O
  O84      1.0000 0.99704  0.67306  0.41243  Biso   1.000  O
  O85      1.0000 0.00424  0.40777  0.32778  Biso   1.000  O
  O86      1.0000 0.99666  0.59894  0.33248  Biso   1.000  O
  O87      1.0000 0.00475  0.59009  0.67380  Biso   1.000  O
  O88      1.0000 0.99867  0.40291  0.67014  Biso   1.000  O
  O89      1.0000 0.40501  0.32984  0.00506  Biso   1.000  O
  O90      1.0000 0.59347  0.32684  0.00209  Biso   1.000  O
  O91      1.0000 0.59527  0.66932  0.00452  Biso   1.000  O
  O92      1.0000 0.40776  0.67032  0.99290  Biso   1.000  O
  O93      1.0000 0.33068  0.00386  0.40444  Biso   1.000  O
  O94      1.0000 0.32794  0.99557  0.59286  Biso   1.000  O
  O95      1.0000 0.67080  0.00427  0.59783  Biso   1.000  O
  O96      1.0000 0.67336  0.99422  0.41143  Biso   1.000  O
  C97      1.0000 0.31168  0.00710  0.76764  Biso   1.000  C
  C98      1.0000 0.34614  0.99556  0.65149  Biso   1.000  C
  C99      1.0000 0.29701  0.99243  0.70233  Biso   1.000  C
  H49      1.0000 0.26997  0.01642  0.86218  Biso   1.000  H
  C100     1.0000 0.26071  0.00524  0.81206  Biso   1.000  C
  C101     1.0000 0.19838  0.98953  0.79362  Biso   1.000  C
  C102     1.0000 0.14757  0.99002  0.84389  Biso   1.000  C
  O97      1.0000 0.16723  0.99271  0.90206  Biso   1.000  O
  H50      1.0000 0.22456  0.96457  0.63476  Biso   1.000  H
  C103     1.0000 0.23339  0.97612  0.68489  Biso   1.000  C
  H51      1.0000 0.13505  0.96145  0.71618  Biso   1.000  H
  C104     1.0000 0.18397  0.97443  0.72940  Biso   1.000  C
  O98      1.0000 0.08872  0.98918  0.82571  Biso   1.000  O
  H52      1.0000 0.63040  0.97901  0.77847  Biso   1.000  H
  C105     1.0000 0.68070  0.99061  0.76943  Biso   1.000  C
  C106     1.0000 0.65032  0.00464  0.65572  Biso   1.000  C
  C107     1.0000 0.69947  0.00618  0.70740  Biso   1.000  C
  C108     1.0000 0.72534  0.98937  0.82029  Biso   1.000  C
  C109     1.0000 0.79085  0.00411  0.80549  Biso   1.000  C
  C110     1.0000 0.84246  0.00034  0.85367  Biso   1.000  C
  O99      1.0000 0.82592  0.99738  0.91326  Biso   1.000  O
  H53      1.0000 0.77682  0.03572  0.64454  Biso   1.000  H
  C111     1.0000 0.76375  0.02223  0.69315  Biso   1.000  C
  H54      1.0000 0.85858  0.03298  0.73358  Biso   1.000  H
  C112     1.0000 0.80836  0.02089  0.74231  Biso   1.000  C
  O100     1.0000 0.90078  0.99896  0.83350  Biso   1.000  O
  Zr19     1.0000 0.11975  0.99871  0.99658  Biso   1.000  Zr
  Zr20     1.0000 0.88120  0.00059  0.00448  Biso   1.000  Zr
  Zr21     1.0000 0.99630  0.99505  0.88095  Biso   1.000  Zr
  H55      1.0000 0.64205  0.02276  0.23082  Biso   1.000  H
  C113     1.0000 0.69211  0.01055  0.24017  Biso   1.000  C
  C114     1.0000 0.65676  0.99531  0.35185  Biso   1.000  C
  C115     1.0000 0.70855  0.99394  0.30361  Biso   1.000  C
  H56      1.0000 0.72527  0.02614  0.14316  Biso   1.000  H
  C116     1.0000 0.73757  0.01221  0.19183  Biso   1.000  C
  C117     1.0000 0.80185  0.99698  0.20713  Biso   1.000  C
  C118     1.0000 0.85203  0.00024  0.15640  Biso   1.000  C
  O101     1.0000 0.83153  0.00210  0.09844  Biso   1.000  O
  C119     1.0000 0.77351  0.97740  0.31898  Biso   1.000  C
  H57      1.0000 0.86952  0.96846  0.27893  Biso   1.000  H
  C120     1.0000 0.81930  0.97978  0.26908  Biso   1.000  C
  O102     1.0000 0.91098  0.00190  0.17401  Biso   1.000  O
  H58      1.0000 0.37290  0.99959  0.22129  Biso   1.000  H
  C121     1.0000 0.32171  0.00449  0.23142  Biso   1.000  C
  C122     1.0000 0.35112  0.00554  0.34653  Biso   1.000  C
  C123     1.0000 0.30185  0.00932  0.29485  Biso   1.000  C
  C124     1.0000 0.27712  0.00538  0.18046  Biso   1.000  C
  C125     1.0000 0.21039  0.01082  0.19620  Biso   1.000  C
  C126     1.0000 0.15892  0.00733  0.14767  Biso   1.000  C
  O103     1.0000 0.17540  0.00243  0.08809  Biso   1.000  O
  H59      1.0000 0.22189  0.02114  0.36020  Biso   1.000  H
  C127     1.0000 0.23620  0.01654  0.31031  Biso   1.000  C
  H60      1.0000 0.14054  0.02197  0.27073  Biso   1.000  H
  C128     1.0000 0.19176  0.01717  0.26100  Biso   1.000  C
  O104     1.0000 0.10042  0.00769  0.16744  Biso   1.000  O
  Zr22     1.0000 0.00466  0.00373  0.12047  Biso   1.000  Zr
  H61      1.0000 0.27089  0.86035  0.95223  Biso   1.000  H
  C129     1.0000 0.26215  0.81153  0.96836  Biso   1.000  C
  O105     1.0000 0.17027  0.90425  0.99376  Biso   1.000  O
  C130     1.0000 0.15100  0.84608  0.99516  Biso   1.000  C
  C131     1.0000 0.20132  0.79549  0.99112  Biso   1.000  C
  C132     1.0000 0.31259  0.76631  0.96686  Biso   1.000  C
  C133     1.0000 0.29892  0.70343  0.99000  Biso   1.000  C
  C134     1.0000 0.34824  0.65282  0.99323  Biso   1.000  C
  H62      1.0000 0.13969  0.72183  0.03050  Biso   1.000  H
  C135     1.0000 0.18747  0.73300  0.01239  Biso   1.000  C
  O106     1.0000 0.09259  0.82727  0.00121  Biso   1.000  O
  H63      1.0000 0.22834  0.63966  0.02904  Biso   1.000  H
  C136     1.0000 0.23641  0.68811  0.01161  Biso   1.000  C
  H64      1.0000 0.28323  0.13595  0.01654  Biso   1.000  H
  C137     1.0000 0.26908  0.18566  0.01018  Biso   1.000  C
  O107     1.0000 0.17309  0.09176  0.99569  Biso   1.000  O
  C138     1.0000 0.15386  0.14998  0.99700  Biso   1.000  C
  C139     1.0000 0.20371  0.20107  0.00048  Biso   1.000  C
  H65      1.0000 0.36444  0.22528  0.01888  Biso   1.000  H
  C140     1.0000 0.31346  0.23500  0.01189  Biso   1.000  C
  C141     1.0000 0.29506  0.29973  0.00446  Biso   1.000  C
  C142     1.0000 0.34610  0.34864  0.00411  Biso   1.000  C
  H66      1.0000 0.13319  0.27440  0.98690  Biso   1.000  H
  C143     1.0000 0.18415  0.26431  0.99371  Biso   1.000  C
  O108     1.0000 0.09503  0.16846  0.99455  Biso   1.000  O
  C144     1.0000 0.22858  0.31531  0.99565  Biso   1.000  C
  Zr23     1.0000 0.00089  0.11954  0.99610  Biso   1.000  Zr
  Zr24     1.0000 0.99919  0.88024  0.00499  Biso   1.000  Zr
  O109     1.0000 0.06970  0.93379  0.06808  Biso   1.000  O
  O110     1.0000 0.06603  0.06396  0.92851  Biso   1.000  O
  O111     1.0000 0.04807  0.94756  0.95080  Biso   1.000  O
  O112     1.0000 0.05193  0.05063  0.04680  Biso   1.000  O
  H67      1.0000 0.72099  0.13617  0.02015  Biso   1.000  H
  C145     1.0000 0.73287  0.18519  0.00730  Biso   1.000  C
  O113     1.0000 0.82917  0.09301  0.99936  Biso   1.000  O
  C146     1.0000 0.84795  0.15118  0.99427  Biso   1.000  C
  C147     1.0000 0.79683  0.20098  0.99109  Biso   1.000  C
  H68      1.0000 0.63787  0.22381  0.02189  Biso   1.000  H
  C148     1.0000 0.68740  0.23349  0.00789  Biso   1.000  C
  C149     1.0000 0.70325  0.29732  0.99215  Biso   1.000  C
  C150     1.0000 0.65213  0.34591  0.99674  Biso   1.000  C
  H69      1.0000 0.86352  0.27339  0.96203  Biso   1.000  H
  C151     1.0000 0.81359  0.26308  0.97417  Biso   1.000  C
  O114     1.0000 0.90656  0.17020  0.99322  Biso   1.000  O
  C152     1.0000 0.76768  0.31290  0.97355  Biso   1.000  C
  C153     1.0000 0.72961  0.81434  0.02837  Biso   1.000  C
  O115     1.0000 0.82894  0.90753  0.01449  Biso   1.000  O
  C154     1.0000 0.84662  0.84834  0.01473  Biso   1.000  C
  C155     1.0000 0.79569  0.79915  0.01734  Biso   1.000  C
  H70      1.0000 0.63362  0.77382  0.03173  Biso   1.000  H
  C156     1.0000 0.68470  0.76388  0.02539  Biso   1.000  C
  C157     1.0000 0.70396  0.70120  0.01357  Biso   1.000  C
  C158     1.0000 0.65397  0.65055  0.00742  Biso   1.000  C
  H71      1.0000 0.86511  0.72549  0.99991  Biso   1.000  H
  C159     1.0000 0.81412  0.73492  0.00719  Biso   1.000  C
  O116     1.0000 0.90519  0.82939  0.01112  Biso   1.000  O
  H72      1.0000 0.78354  0.63637  0.99780  Biso   1.000  H
  C160     1.0000 0.76946  0.68586  0.00560  Biso   1.000  C
  O117     1.0000 0.93542  0.07001  0.06770  Biso   1.000  O
  O118     1.0000 0.93014  0.93007  0.93785  Biso   1.000  O
  O119     1.0000 0.94916  0.04801  0.95038  Biso   1.000  O
  O120     1.0000 0.95185  0.95194  0.05409  Biso   1.000  O
  H73      1.0000 0.09761  0.90794  0.09495  Biso   1.000  H
  H74      1.0000 0.09229  0.09014  0.90033  Biso   1.000  H
  O121     1.0000 0.00024  0.82582  0.91284  Biso   1.000  O
  O122     1.0000 0.99869  0.83207  0.09922  Biso   1.000  O
  H75      1.0000 0.90203  0.90280  0.91266  Biso   1.000  H
  H76      1.0000 0.90914  0.09776  0.09431  Biso   1.000  H
  O123     1.0000 0.00706  0.17442  0.08878  Biso   1.000  O
  O124     1.0000 0.99526  0.16675  0.90040  Biso   1.000  O
  O125     1.0000 0.99607  0.89984  0.83295  Biso   1.000  O
  O126     1.0000 0.99397  0.08715  0.82595  Biso   1.000  O
  O127     1.0000 0.00913  0.09832  0.16707  Biso   1.000  O
  O128     1.0000 0.00201  0.91085  0.17480  Biso   1.000  O
  H77      1.0000 0.98702  0.27065  0.86047  Biso   1.000  H
  C161     1.0000 0.98819  0.26049  0.80934  Biso   1.000  C
  C162     1.0000 0.99256  0.14683  0.84231  Biso   1.000  C
  C163     1.0000 0.98953  0.19543  0.79093  Biso   1.000  C
  H78      1.0000 0.98875  0.35961  0.77901  Biso   1.000  H
  C164     1.0000 0.98934  0.30954  0.76483  Biso   1.000  C
  C165     1.0000 0.99218  0.29363  0.69925  Biso   1.000  C
  C166     1.0000 0.99630  0.34503  0.64991  Biso   1.000  C
  C167     1.0000 0.99067  0.17937  0.72437  Biso   1.000  C
  H79      1.0000 0.99405  0.21943  0.62860  Biso   1.000  H
  C168     1.0000 0.99233  0.23000  0.67968  Biso   1.000  C
  C169     1.0000 0.00670  0.72420  0.82144  Biso   1.000  C
  C170     1.0000 0.99973  0.84197  0.85313  Biso   1.000  C
  C171     1.0000 0.00263  0.79042  0.80481  Biso   1.000  C
  H80      1.0000 0.01049  0.62828  0.78186  Biso   1.000  H
  C172     1.0000 0.00842  0.67926  0.77106  Biso   1.000  C
  C173     1.0000 0.00654  0.69838  0.70725  Biso   1.000  C
  C174     1.0000 0.00576  0.64878  0.65598  Biso   1.000  C
  H81      1.0000 0.99886  0.85941  0.72921  Biso   1.000  H
  C175     1.0000 0.00150  0.80845  0.73963  Biso   1.000  C
  H82      1.0000 0.00267  0.77745  0.64063  Biso   1.000  H
  C176     1.0000 0.00356  0.76371  0.69085  Biso   1.000  C
  H83      1.0000 0.01455  0.28697  0.13208  Biso   1.000  H
  C177     1.0000 0.01350  0.27255  0.18214  Biso   1.000  C
  C178     1.0000 0.00975  0.15656  0.14736  Biso   1.000  C
  C179     1.0000 0.01212  0.20696  0.19795  Biso   1.000  C
  H84      1.0000 0.01324  0.36809  0.22122  Biso   1.000  H
  C180     1.0000 0.01281  0.31700  0.23142  Biso   1.000  C
  C181     1.0000 0.01069  0.29851  0.29657  Biso   1.000  C
  C182     1.0000 0.00591  0.34915  0.34575  Biso   1.000  C
  H85      1.0000 0.01083  0.13647  0.27222  Biso   1.000  H
  C183     1.0000 0.01141  0.18750  0.26166  Biso   1.000  C
  C184     1.0000 0.01091  0.23192  0.31242  Biso   1.000  C
  H86      1.0000 0.99258  0.72368  0.14077  Biso   1.000  H
  C185     1.0000 0.99380  0.73703  0.19109  Biso   1.000  C
  C186     1.0000 0.99869  0.85223  0.15720  Biso   1.000  C
  C187     1.0000 0.99593  0.80226  0.20810  Biso   1.000  C
  H87      1.0000 0.99219  0.64078  0.22829  Biso   1.000  H
  C188     1.0000 0.99356  0.69167  0.23936  Biso   1.000  C
  C189     1.0000 0.99510  0.70900  0.30472  Biso   1.000  C
  C190     1.0000 0.99598  0.65687  0.35256  Biso   1.000  C
  H88      1.0000 0.99881  0.87162  0.28344  Biso   1.000  H
  C191     1.0000 0.99678  0.82075  0.27210  Biso   1.000  C
  C192     1.0000 0.99617  0.77523  0.32195  Biso   1.000  C
  N1       1.0000 0.99905  0.79668  0.38442  Biso   1.000  N
  H89      1.0000 0.98885  0.76331  0.41857  Biso   1.000  H
  H90      1.0000 0.98456  0.84235  0.39225  Biso   1.000  H
  N2       1.0000 0.98898  0.11738  0.70201  Biso   1.000  N
  H91      1.0000 0.00558  0.11006  0.65689  Biso   1.000  H
  H92      1.0000 0.99803  0.08289  0.73541  Biso   1.000  H
  N3       1.0000 0.49127  0.37919  0.29684  Biso   1.000  N
  H93      1.0000 0.51094  0.38549  0.34093  Biso   1.000  H
  H94      1.0000 0.50192  0.41298  0.26317  Biso   1.000  H
  N4       1.0000 0.46977  0.62290  0.70898  Biso   1.000  N
  H95      1.0000 0.47049  0.61405  0.66129  Biso   1.000  H
  H96      1.0000 0.47788  0.58668  0.74058  Biso   1.000  H
  N5       1.0000 0.79366  0.96079  0.37951  Biso   1.000  N
  H97      1.0000 0.83373  0.93329  0.38287  Biso   1.000  H
  H98      1.0000 0.75901  0.95341  0.41319  Biso   1.000  H
  N6       1.0000 0.79458  0.87756  0.52685  Biso   1.000  N
  H99      1.0000 0.75988  0.91048  0.53726  Biso   1.000  H
  H100     1.0000 0.83520  0.88018  0.55384  Biso   1.000  H
  N7       1.0000 0.79428  0.52266  0.87731  Biso   1.000  N
  H101     1.0000 0.83431  0.55054  0.87887  Biso   1.000  H
  H102     1.0000 0.75950  0.53280  0.91021  Biso   1.000  H
  N8       1.0000 0.78746  0.37323  0.95672  Biso   1.000  N
  H103     1.0000 0.75331  0.40763  0.95111  Biso   1.000  H
  H104     1.0000 0.82804  0.37727  0.93005  Biso   1.000  H
  N9       1.0000 0.70373  0.97470  0.88080  Biso   1.000  N
  H105     1.0000 0.73773  0.96807  0.91530  Biso   1.000  H
  H106     1.0000 0.66264  0.94873  0.88429  Biso   1.000  H
  N10      1.0000 0.70638  0.37850  0.51488  Biso   1.000  N
  H107     1.0000 0.65988  0.38563  0.50195  Biso   1.000  H
  H108     1.0000 0.73886  0.41329  0.50371  Biso   1.000  H
  N11      1.0000 0.71021  0.54207  0.37611  Biso   1.000  N
  H109     1.0000 0.74549  0.55024  0.40906  Biso   1.000  H
  H110     1.0000 0.67120  0.57132  0.37798  Biso   1.000  H
  N12      1.0000 0.70721  0.87567  0.03951  Biso   1.000  N
  H111     1.0000 0.66558  0.87861  0.06486  Biso   1.000  H
  H112     1.0000 0.74154  0.90883  0.05034  Biso   1.000  H
  N13      1.0000 0.29979  0.00209  0.11865  Biso   1.000  N
  H113     1.0000 0.26611  0.99384  0.08412  Biso   1.000  H
  H114     1.0000 0.34453  0.98376  0.11231  Biso   1.000  H
  N14      1.0000 0.20571  0.37663  0.98998  Biso   1.000  N
  H115     1.0000 0.16151  0.38258  0.97030  Biso   1.000  H
  H116     1.0000 0.23892  0.41193  0.98419  Biso   1.000  H
  N15      1.0000 0.54287  0.21009  0.87634  Biso   1.000  N
  H117     1.0000 0.54941  0.24443  0.91037  Biso   1.000  H
  H118     1.0000 0.57103  0.17050  0.87921  Biso   1.000  H
  N16      1.0000 0.49646  0.62243  0.29441  Biso   1.000  N
  H119     1.0000 0.47373  0.61772  0.33724  Biso   1.000  H
  H120     1.0000 0.48572  0.58918  0.26028  Biso   1.000  H
  N17      1.0000 0.28860  0.45564  0.37340  Biso   1.000  N
  H121     1.0000 0.32826  0.42738  0.37596  Biso   1.000  H
  H122     1.0000 0.25449  0.44898  0.40773  Biso   1.000  H
  N18      1.0000 0.29298  0.37559  0.52269  Biso   1.000  N
  H123     1.0000 0.25810  0.40840  0.53273  Biso   1.000  H
  H124     1.0000 0.33294  0.37714  0.55069  Biso   1.000  H
  N19      1.0000 0.37224  0.02207  0.78993  Biso   1.000  N
  H125     1.0000 0.40687  0.02957  0.75626  Biso   1.000  H
  H126     1.0000 0.37451  0.04825  0.83082  Biso   1.000  H
  N20      1.0000 0.37200  0.78507  0.94457  Biso   1.000  N
  H127     1.0000 0.40619  0.75054  0.93932  Biso   1.000  H
  H128     1.0000 0.37288  0.82185  0.91281  Biso   1.000  H
  N21      1.0000 0.21191  0.54144  0.87475  Biso   1.000  N
  H129     1.0000 0.24675  0.55059  0.90790  Biso   1.000  H
  H130     1.0000 0.17243  0.57000  0.87660  Biso   1.000  H
  N22      1.0000 0.20592  0.87746  0.50240  Biso   1.000  N
  H131     1.0000 0.16074  0.88329  0.48495  Biso   1.000  H
  H132     1.0000 0.23910  0.91200  0.49259  Biso   1.000  H
  N23      1.0000 0.00665  0.70234  0.88371  Biso   1.000  N
  H133     1.0000 0.01478  0.73610  0.91806  Biso   1.000  H
  H134     1.0000 0.02420  0.65770  0.89129  Biso   1.000  H
  N24      1.0000 0.01210  0.20874  0.37425  Biso   1.000  N
  H135     1.0000 0.99684  0.16304  0.38040  Biso   1.000  H
  H136     1.0000 0.00120  0.24121  0.40902  Biso   1.000  H
