data_image0
_cell_length_a       20.7722
_cell_length_b       20.8916
_cell_length_c       20.8654
_cell_angle_alpha    90
_cell_angle_beta     90
_cell_angle_gamma    90

_symmetry_space_group_name_H-M    "P 1"
_symmetry_int_tables_number       1

loop_
  _symmetry_equiv_pos_as_xyz
  'x, y, z'

loop_
  _atom_site_label
  _atom_site_occupancy
  _atom_site_fract_x
  _atom_site_fract_y
  _atom_site_fract_z
  _atom_site_thermal_displace_type
  _atom_site_B_iso_or_equiv
  _atom_site_type_symbol
  H1       1.0000 0.50190  0.27302  0.36640  Biso   1.000  H
  C1       1.0000 0.50131  0.26208  0.31543  Biso   1.000  C
  O1       1.0000 0.49711  0.16722  0.40596  Biso   1.000  O
  C2       1.0000 0.50041  0.14784  0.34818  Biso   1.000  C
  C3       1.0000 0.50065  0.19817  0.29664  Biso   1.000  C
  C4       1.0000 0.50042  0.31282  0.27081  Biso   1.000  C
  C5       1.0000 0.49872  0.29762  0.20394  Biso   1.000  C
  C6       1.0000 0.49816  0.34795  0.15348  Biso   1.000  C
  O2       1.0000 0.49733  0.40681  0.17161  Biso   1.000  O
  H2       1.0000 0.49815  0.13315  0.21590  Biso   1.000  H
  C7       1.0000 0.49902  0.18298  0.23074  Biso   1.000  C
  O3       1.0000 0.50264  0.08870  0.33047  Biso   1.000  O
  H3       1.0000 0.49648  0.22165  0.13507  Biso   1.000  H
  C8       1.0000 0.49799  0.23231  0.18606  Biso   1.000  C
  O4       1.0000 0.49776  0.33041  0.09408  Biso   1.000  O
  Zr1      1.0000 0.49898  0.11714  0.50137  Biso   1.000  Zr
  O5       1.0000 0.56229  0.06118  0.43831  Biso   1.000  O
  O6       1.0000 0.44720  0.05050  0.44505  Biso   1.000  O
  O7       1.0000 0.43693  0.06110  0.56448  Biso   1.000  O
  O8       1.0000 0.55237  0.05239  0.55846  Biso   1.000  O
  H4       1.0000 0.36009  0.46569  0.27457  Biso   1.000  H
  C9       1.0000 0.31082  0.48015  0.26429  Biso   1.000  C
  O9       1.0000 0.40532  0.49825  0.17061  Biso   1.000  O
  C10      1.0000 0.34659  0.50043  0.15234  Biso   1.000  C
  C11      1.0000 0.29508  0.49942  0.20250  Biso   1.000  C
  C12      1.0000 0.26459  0.47824  0.31396  Biso   1.000  C
  C13      1.0000 0.20004  0.49767  0.29929  Biso   1.000  C
  C14      1.0000 0.14885  0.49844  0.34861  Biso   1.000  C
  O10      1.0000 0.16672  0.49418  0.40725  Biso   1.000  O
  H5       1.0000 0.21915  0.53173  0.13923  Biso   1.000  H
  C15      1.0000 0.23120  0.51719  0.18773  Biso   1.000  C
  O11      1.0000 0.32798  0.50275  0.09369  Biso   1.000  O
  H6       1.0000 0.13576  0.53021  0.22596  Biso   1.000  H
  C16      1.0000 0.18519  0.51619  0.23589  Biso   1.000  C
  O12      1.0000 0.08921  0.50263  0.33072  Biso   1.000  O
  Zr2      1.0000 0.50021  0.50002  0.11831  Biso   1.000  Zr
  H7       1.0000 0.63927  0.53601  0.27454  Biso   1.000  H
  C17      1.0000 0.68903  0.52324  0.26433  Biso   1.000  C
  O13      1.0000 0.59496  0.50284  0.17143  Biso   1.000  O
  C18      1.0000 0.65352  0.50075  0.15290  Biso   1.000  C
  C19      1.0000 0.70523  0.50380  0.20270  Biso   1.000  C
  C20      1.0000 0.73525  0.52686  0.31367  Biso   1.000  C
  C21      1.0000 0.80020  0.50932  0.29896  Biso   1.000  C
  C22      1.0000 0.85121  0.50807  0.34855  Biso   1.000  C
  O14      1.0000 0.83129  0.50826  0.40734  Biso   1.000  O
  H8       1.0000 0.78167  0.47281  0.13941  Biso   1.000  H
  C23      1.0000 0.76949  0.48787  0.18774  Biso   1.000  C
  O15      1.0000 0.67226  0.49724  0.09438  Biso   1.000  O
  H9       1.0000 0.86543  0.47814  0.22583  Biso   1.000  H
  C24      1.0000 0.81563  0.49087  0.23568  Biso   1.000  C
  O16      1.0000 0.91067  0.50509  0.33174  Biso   1.000  O
  Ta1      1.0000 0.50483  0.00315  0.38904  Biso   1.000  Ta
  O17      1.0000 0.50022  0.16917  0.59781  Biso   1.000  O
  O18      1.0000 0.50256  0.59409  0.16960  Biso   1.000  O
  O19      1.0000 0.40588  0.16905  0.49952  Biso   1.000  O
  O20      1.0000 0.59173  0.16950  0.50526  Biso   1.000  O
  O21      1.0000 0.41416  0.00244  0.33155  Biso   1.000  O
  O22      1.0000 0.59316  0.99803  0.33342  Biso   1.000  O
  O23      1.0000 0.50552  0.91102  0.33092  Biso   1.000  O
  Zr3      1.0000 0.11617  0.49982  0.50070  Biso   1.000  Zr
  Zr4      1.0000 0.87770  0.50029  0.50127  Biso   1.000  Zr
  Ta2      1.0000 0.50263  0.38682  0.00679  Biso   1.000  Ta
  Ta3      1.0000 0.49510  0.00364  0.61330  Biso   1.000  Ta
  Ta4      1.0000 0.00337  0.50449  0.38821  Biso   1.000  Ta
  Zr5      1.0000 0.61960  0.49613  0.00420  Biso   1.000  Zr
  Zr6      1.0000 0.38168  0.50334  0.00336  Biso   1.000  Zr
  Zr7      1.0000 0.61807  0.00298  0.50140  Biso   1.000  Zr
  Zr8      1.0000 0.38048  0.00174  0.50217  Biso   1.000  Zr
  O24      1.0000 0.43612  0.93449  0.43435  Biso   1.000  O
  O25      1.0000 0.43955  0.56467  0.06198  Biso   1.000  O
  O26      1.0000 0.56146  0.43504  0.06382  Biso   1.000  O
  O27      1.0000 0.54979  0.94719  0.45053  Biso   1.000  O
  O28      1.0000 0.44636  0.44484  0.05301  Biso   1.000  O
  O29      1.0000 0.55479  0.55492  0.05281  Biso   1.000  O
  H10      1.0000 0.49202  0.72692  0.36393  Biso   1.000  H
  C25      1.0000 0.49693  0.73818  0.31327  Biso   1.000  C
  O30      1.0000 0.50334  0.83080  0.40529  Biso   1.000  O
  C26      1.0000 0.50500  0.85187  0.34733  Biso   1.000  C
  C27      1.0000 0.50460  0.80191  0.29533  Biso   1.000  C
  C28      1.0000 0.49561  0.68776  0.26825  Biso   1.000  C
  C29      1.0000 0.50258  0.70308  0.20175  Biso   1.000  C
  C30      1.0000 0.50227  0.65277  0.15098  Biso   1.000  C
  H11      1.0000 0.51685  0.86693  0.21550  Biso   1.000  H
  C31      1.0000 0.51096  0.81724  0.22973  Biso   1.000  C
  H12      1.0000 0.51444  0.77895  0.13383  Biso   1.000  H
  C32      1.0000 0.50983  0.76819  0.18464  Biso   1.000  C
  O31      1.0000 0.50270  0.67008  0.09164  Biso   1.000  O
  Zr9      1.0000 0.49962  0.87674  0.50135  Biso   1.000  Zr
  H13      1.0000 0.40918  0.91079  0.40465  Biso   1.000  H
  H14      1.0000 0.58992  0.91239  0.59930  Biso   1.000  H
  O32      1.0000 0.56349  0.93564  0.56883  Biso   1.000  O
  O33      1.0000 0.44984  0.94711  0.55267  Biso   1.000  O
  O34      1.0000 0.49645  0.83090  0.59759  Biso   1.000  O
  O35      1.0000 0.59462  0.82988  0.50054  Biso   1.000  O
  O36      1.0000 0.40597  0.82821  0.50253  Biso   1.000  O
  Ta5      1.0000 0.49881  0.61125  0.00419  Biso   1.000  Ta
  H15      1.0000 0.47889  0.27617  0.64369  Biso   1.000  H
  C33      1.0000 0.48901  0.26288  0.69299  Biso   1.000  C
  C34      1.0000 0.49928  0.14879  0.65518  Biso   1.000  C
  C35      1.0000 0.50076  0.19803  0.70788  Biso   1.000  C
  H16      1.0000 0.48136  0.35822  0.73097  Biso   1.000  H
  C36      1.0000 0.49045  0.30808  0.74153  Biso   1.000  C
  C37      1.0000 0.50341  0.29187  0.80605  Biso   1.000  C
  C38      1.0000 0.50387  0.34431  0.85418  Biso   1.000  C
  O37      1.0000 0.50247  0.40223  0.83275  Biso   1.000  O
  H17      1.0000 0.52383  0.13060  0.78182  Biso   1.000  H
  C39      1.0000 0.51412  0.18063  0.77094  Biso   1.000  C
  O38      1.0000 0.49764  0.08933  0.67238  Biso   1.000  O
  C40      1.0000 0.51597  0.22628  0.82125  Biso   1.000  C
  O39      1.0000 0.50432  0.32969  0.91438  Biso   1.000  O
  H18      1.0000 0.64251  0.46555  0.72834  Biso   1.000  H
  C41      1.0000 0.69263  0.47651  0.73861  Biso   1.000  C
  O40      1.0000 0.59745  0.49439  0.83075  Biso   1.000  O
  C42      1.0000 0.65613  0.49446  0.85051  Biso   1.000  C
  C43      1.0000 0.70860  0.49194  0.80253  Biso   1.000  C
  H19      1.0000 0.72557  0.46312  0.64134  Biso   1.000  H
  C44      1.0000 0.73834  0.47528  0.69034  Biso   1.000  C
  C45      1.0000 0.80283  0.48992  0.70557  Biso   1.000  C
  C46      1.0000 0.85233  0.49251  0.65358  Biso   1.000  C
  O41      1.0000 0.83046  0.49466  0.59620  Biso   1.000  O
  C47      1.0000 0.77420  0.50571  0.81813  Biso   1.000  C
  O42      1.0000 0.67242  0.49747  0.91013  Biso   1.000  O
  H20      1.0000 0.87032  0.51496  0.77888  Biso   1.000  H
  C48      1.0000 0.82016  0.50418  0.76834  Biso   1.000  C
  O43      1.0000 0.91187  0.49438  0.66989  Biso   1.000  O
  Zr10     1.0000 0.50124  0.49746  0.87839  Biso   1.000  Zr
  H21      1.0000 0.36105  0.48004  0.72585  Biso   1.000  H
  C49      1.0000 0.31082  0.49014  0.73641  Biso   1.000  C
  O44      1.0000 0.40573  0.49936  0.82960  Biso   1.000  O
  C50      1.0000 0.34697  0.50334  0.84909  Biso   1.000  C
  C51      1.0000 0.29484  0.50387  0.80073  Biso   1.000  C
  H22      1.0000 0.27787  0.47891  0.63891  Biso   1.000  H
  C52      1.0000 0.26500  0.48907  0.68830  Biso   1.000  C
  C53      1.0000 0.20008  0.50116  0.70392  Biso   1.000  C
  C54      1.0000 0.14994  0.49990  0.65232  Biso   1.000  C
  O45      1.0000 0.16993  0.50040  0.59476  Biso   1.000  O
  C55      1.0000 0.22927  0.51761  0.81641  Biso   1.000  C
  O46      1.0000 0.33068  0.50574  0.90861  Biso   1.000  O
  H23      1.0000 0.13264  0.52435  0.77779  Biso   1.000  H
  C56      1.0000 0.18300  0.51505  0.76682  Biso   1.000  C
  O47      1.0000 0.09054  0.49920  0.67033  Biso   1.000  O
  O48      1.0000 0.49761  0.59308  0.83081  Biso   1.000  O
  O49      1.0000 0.58574  0.00255  0.67192  Biso   1.000  O
  O50      1.0000 0.40882  0.99968  0.66936  Biso   1.000  O
  O51      1.0000 0.49466  0.91114  0.67201  Biso   1.000  O
  Ta6      1.0000 0.00392  0.49514  0.61336  Biso   1.000  Ta
  O52      1.0000 0.56621  0.56422  0.93585  Biso   1.000  O
  O53      1.0000 0.43575  0.43356  0.93647  Biso   1.000  O
  O54      1.0000 0.54940  0.44694  0.94991  Biso   1.000  O
  O55      1.0000 0.45234  0.55116  0.94808  Biso   1.000  O
  H24      1.0000 0.46907  0.72861  0.63944  Biso   1.000  H
  C57      1.0000 0.47819  0.73914  0.68968  Biso   1.000  C
  C58      1.0000 0.49365  0.85209  0.65541  Biso   1.000  C
  C59      1.0000 0.49078  0.80209  0.70734  Biso   1.000  C
  C60      1.0000 0.47717  0.68850  0.73467  Biso   1.000  C
  C61      1.0000 0.49144  0.70277  0.80031  Biso   1.000  C
  C62      1.0000 0.49606  0.65211  0.85034  Biso   1.000  C
  H25      1.0000 0.51171  0.86601  0.78632  Biso   1.000  H
  C63      1.0000 0.50236  0.81676  0.77242  Biso   1.000  C
  H26      1.0000 0.51406  0.77735  0.86708  Biso   1.000  H
  C64      1.0000 0.50302  0.76739  0.81709  Biso   1.000  C
  O56      1.0000 0.49983  0.66894  0.90946  Biso   1.000  O
  C65      1.0000 0.26978  0.31477  0.51389  Biso   1.000  C
  O57      1.0000 0.16994  0.40772  0.49995  Biso   1.000  O
  C66      1.0000 0.15270  0.34853  0.50001  Biso   1.000  C
  C67      1.0000 0.20398  0.29945  0.50148  Biso   1.000  C
  H27      1.0000 0.36559  0.27492  0.52191  Biso   1.000  H
  C68      1.0000 0.31497  0.26455  0.51347  Biso   1.000  C
  C69      1.0000 0.29669  0.20157  0.50183  Biso   1.000  C
  C70      1.0000 0.34720  0.15083  0.50048  Biso   1.000  C
  H28      1.0000 0.13627  0.22523  0.48008  Biso   1.000  H
  C71      1.0000 0.18667  0.23515  0.48999  Biso   1.000  C
  O58      1.0000 0.09392  0.32983  0.49791  Biso   1.000  O
  H29      1.0000 0.21827  0.13694  0.48087  Biso   1.000  H
  C72      1.0000 0.23171  0.18629  0.49023  Biso   1.000  C
  O59      1.0000 0.32793  0.09254  0.49944  Biso   1.000  O
  H30      1.0000 0.28282  0.63455  0.50957  Biso   1.000  H
  C73      1.0000 0.26888  0.68454  0.50628  Biso   1.000  C
  O60      1.0000 0.17097  0.59167  0.50331  Biso   1.000  O
  C74      1.0000 0.15264  0.64986  0.50236  Biso   1.000  C
  C75      1.0000 0.20313  0.70059  0.50153  Biso   1.000  C
  H31      1.0000 0.36492  0.72301  0.51030  Biso   1.000  H
  C76      1.0000 0.31378  0.73342  0.50675  Biso   1.000  C
  C77      1.0000 0.29573  0.79855  0.50259  Biso   1.000  C
  C78      1.0000 0.34690  0.84734  0.50207  Biso   1.000  C
  H32      1.0000 0.13296  0.77492  0.49324  Biso   1.000  H
  C79      1.0000 0.18404  0.76412  0.49699  Biso   1.000  C
  O61      1.0000 0.09390  0.66901  0.50313  Biso   1.000  O
  C80      1.0000 0.22904  0.81462  0.49746  Biso   1.000  C
  O62      1.0000 0.33028  0.90675  0.50009  Biso   1.000  O
  O63      1.0000 0.33252  0.40812  0.00308  Biso   1.000  O
  O64      1.0000 0.33232  0.59680  0.99771  Biso   1.000  O
  Zr11     1.0000 0.00229  0.61834  0.50119  Biso   1.000  Zr
  Zr12     1.0000 0.00117  0.38069  0.50197  Biso   1.000  Zr
  O65      1.0000 0.06118  0.43769  0.56427  Biso   1.000  O
  O66      1.0000 0.06125  0.56209  0.43769  Biso   1.000  O
  O67      1.0000 0.04993  0.44732  0.44471  Biso   1.000  O
  O68      1.0000 0.05189  0.55280  0.55817  Biso   1.000  O
  H33      1.0000 0.40846  0.40412  0.91287  Biso   1.000  H
  H34      1.0000 0.59303  0.59381  0.91191  Biso   1.000  H
  H35      1.0000 0.71789  0.63757  0.48810  Biso   1.000  H
  C81      1.0000 0.73190  0.68721  0.49451  Biso   1.000  C
  O69      1.0000 0.82745  0.59359  0.50250  Biso   1.000  O
  C82      1.0000 0.84743  0.65183  0.50282  Biso   1.000  C
  C83      1.0000 0.79719  0.70273  0.50381  Biso   1.000  C
  H36      1.0000 0.63621  0.72617  0.48644  Biso   1.000  H
  C84      1.0000 0.68699  0.73607  0.49413  Biso   1.000  C
  C85      1.0000 0.70476  0.80050  0.50384  Biso   1.000  C
  C86      1.0000 0.65329  0.84926  0.50305  Biso   1.000  C
  H37      1.0000 0.86660  0.77612  0.52181  Biso   1.000  H
  C87      1.0000 0.81584  0.76579  0.51417  Biso   1.000  C
  O70      1.0000 0.90617  0.66953  0.50302  Biso   1.000  O
  C88      1.0000 0.77068  0.81606  0.51536  Biso   1.000  C
  O71      1.0000 0.67025  0.90843  0.50562  Biso   1.000  O
  C89      1.0000 0.72684  0.31674  0.50566  Biso   1.000  C
  O72      1.0000 0.82781  0.40858  0.49992  Biso   1.000  O
  C90      1.0000 0.84531  0.34891  0.50270  Biso   1.000  C
  C91      1.0000 0.79372  0.30045  0.50445  Biso   1.000  C
  H38      1.0000 0.63050  0.27719  0.50692  Biso   1.000  H
  C92      1.0000 0.68171  0.26636  0.50553  Biso   1.000  C
  C93      1.0000 0.70084  0.20270  0.50387  Biso   1.000  C
  C94      1.0000 0.65052  0.15179  0.50382  Biso   1.000  C
  H39      1.0000 0.86294  0.22463  0.50242  Biso   1.000  H
  C95      1.0000 0.81173  0.23524  0.50329  Biso   1.000  C
  O73      1.0000 0.90412  0.33071  0.50273  Biso   1.000  O
  H40      1.0000 0.78074  0.13646  0.50123  Biso   1.000  H
  C96      1.0000 0.76670  0.18650  0.50275  Biso   1.000  C
  O74      1.0000 0.67027  0.09369  0.50312  Biso   1.000  O
  O75      1.0000 0.66983  0.59221  0.00496  Biso   1.000  O
  O76      1.0000 0.66685  0.40358  0.99484  Biso   1.000  O
  O77      1.0000 0.93503  0.56361  0.56865  Biso   1.000  O
  O78      1.0000 0.93403  0.43642  0.43390  Biso   1.000  O
  O79      1.0000 0.94755  0.54996  0.45022  Biso   1.000  O
  O80      1.0000 0.94718  0.44983  0.55261  Biso   1.000  O
  O81      1.0000 0.00180  0.33329  0.40669  Biso   1.000  O
  O82      1.0000 0.99675  0.33052  0.59411  Biso   1.000  O
  H41      1.0000 0.91005  0.41002  0.40398  Biso   1.000  H
  H42      1.0000 0.91140  0.58967  0.59911  Biso   1.000  H
  O83      1.0000 0.00321  0.66669  0.59765  Biso   1.000  O
  O84      1.0000 0.99466  0.66976  0.41080  Biso   1.000  O
  O85      1.0000 0.00265  0.41166  0.33051  Biso   1.000  O
  O86      1.0000 0.99762  0.59377  0.33322  Biso   1.000  O
  O87      1.0000 0.00266  0.58616  0.67206  Biso   1.000  O
  O88      1.0000 0.99963  0.40844  0.67015  Biso   1.000  O
  O89      1.0000 0.41067  0.33125  0.00533  Biso   1.000  O
  O90      1.0000 0.58905  0.32773  0.00279  Biso   1.000  O
  O91      1.0000 0.58942  0.66704  0.00335  Biso   1.000  O
  O92      1.0000 0.41372  0.66950  0.99708  Biso   1.000  O
  O93      1.0000 0.33279  0.00311  0.40553  Biso   1.000  O
  O94      1.0000 0.32963  0.99399  0.59446  Biso   1.000  O
  O95      1.0000 0.66707  0.00529  0.59796  Biso   1.000  O
  O96      1.0000 0.66961  0.99211  0.41090  Biso   1.000  O
  C97      1.0000 0.31374  0.01375  0.76846  Biso   1.000  C
  C98      1.0000 0.34876  0.99715  0.65249  Biso   1.000  C
  C99      1.0000 0.29979  0.99669  0.70367  Biso   1.000  C
  H43      1.0000 0.27182  0.02403  0.86283  Biso   1.000  H
  C100     1.0000 0.26267  0.01170  0.81300  Biso   1.000  C
  C101     1.0000 0.20059  0.99413  0.79504  Biso   1.000  C
  C102     1.0000 0.14937  0.99295  0.84524  Biso   1.000  C
  O97      1.0000 0.16878  0.99467  0.90349  Biso   1.000  O
  H44      1.0000 0.22768  0.96613  0.63694  Biso   1.000  H
  C103     1.0000 0.23635  0.97916  0.68665  Biso   1.000  C
  H45      1.0000 0.13826  0.96371  0.71779  Biso   1.000  H
  C104     1.0000 0.18680  0.97781  0.73101  Biso   1.000  C
  O98      1.0000 0.09040  0.99141  0.82714  Biso   1.000  O
  H46      1.0000 0.62716  0.98099  0.78048  Biso   1.000  H
  C105     1.0000 0.67730  0.99211  0.77021  Biso   1.000  C
  C106     1.0000 0.64541  0.00569  0.65541  Biso   1.000  C
  C107     1.0000 0.69474  0.00735  0.70771  Biso   1.000  C
  C108     1.0000 0.72305  0.99038  0.82039  Biso   1.000  C
  C109     1.0000 0.78878  0.00427  0.80514  Biso   1.000  C
  C110     1.0000 0.84132  0.00061  0.85311  Biso   1.000  C
  O99      1.0000 0.82523  0.99716  0.91285  Biso   1.000  O
  H47      1.0000 0.77210  0.03567  0.64435  Biso   1.000  H
  C111     1.0000 0.75929  0.02250  0.69306  Biso   1.000  C
  H48      1.0000 0.85495  0.03212  0.73152  Biso   1.000  H
  C112     1.0000 0.80487  0.02065  0.74148  Biso   1.000  C
  O100     1.0000 0.89985  0.00000  0.83315  Biso   1.000  O
  Zr13     1.0000 0.12030  0.99919  0.99801  Biso   1.000  Zr
  Zr14     1.0000 0.88088  0.99987  0.00481  Biso   1.000  Zr
  Zr15     1.0000 0.99666  0.99584  0.88151  Biso   1.000  Zr
  H49      1.0000 0.63878  0.02378  0.22929  Biso   1.000  H
  C113     1.0000 0.68857  0.01128  0.23947  Biso   1.000  C
  C114     1.0000 0.65223  0.99528  0.35182  Biso   1.000  C
  C115     1.0000 0.70391  0.99472  0.30323  Biso   1.000  C
  H50      1.0000 0.72274  0.02618  0.14280  Biso   1.000  H
  C116     1.0000 0.73472  0.01249  0.19158  Biso   1.000  C
  C117     1.0000 0.79898  0.99705  0.20721  Biso   1.000  C
  C118     1.0000 0.85020  0.99918  0.15697  Biso   1.000  C
  O101     1.0000 0.83055  0.00064  0.09874  Biso   1.000  O
  C119     1.0000 0.76890  0.97801  0.31889  Biso   1.000  C
  H51      1.0000 0.86522  0.96866  0.28023  Biso   1.000  H
  C120     1.0000 0.81529  0.98018  0.26948  Biso   1.000  C
  O102     1.0000 0.90913  0.00012  0.17499  Biso   1.000  O
  H52      1.0000 0.37475  0.99783  0.22110  Biso   1.000  H
  C121     1.0000 0.32387  0.00337  0.23220  Biso   1.000  C
  C122     1.0000 0.35451  0.00534  0.34813  Biso   1.000  C
  C123     1.0000 0.30527  0.00923  0.29591  Biso   1.000  C
  C124     1.0000 0.27830  0.00405  0.18185  Biso   1.000  C
  C125     1.0000 0.21163  0.01027  0.19803  Biso   1.000  C
  C126     1.0000 0.15933  0.00714  0.14989  Biso   1.000  C
  O103     1.0000 0.17529  0.00266  0.09014  Biso   1.000  O
  H53      1.0000 0.22592  0.02273  0.36161  Biso   1.000  H
  C127     1.0000 0.23968  0.01718  0.31173  Biso   1.000  C
  H54      1.0000 0.14349  0.02298  0.27385  Biso   1.000  H
  C128     1.0000 0.19440  0.01752  0.26311  Biso   1.000  C
  O104     1.0000 0.10072  0.00751  0.16968  Biso   1.000  O
  Zr16     1.0000 0.00430  0.00309  0.12177  Biso   1.000  Zr
  H55      1.0000 0.27662  0.86354  0.96238  Biso   1.000  H
  C129     1.0000 0.26758  0.81451  0.97750  Biso   1.000  C
  O105     1.0000 0.17197  0.90567  0.99490  Biso   1.000  O
  C130     1.0000 0.15369  0.84711  0.99680  Biso   1.000  C
  C131     1.0000 0.20556  0.79744  0.99613  Biso   1.000  C
  C132     1.0000 0.31879  0.76996  0.97799  Biso   1.000  C
  C133     1.0000 0.30493  0.70619  0.99824  Biso   1.000  C
  C134     1.0000 0.35320  0.65432  0.99813  Biso   1.000  C
  H56      1.0000 0.14368  0.72208  0.03155  Biso   1.000  H
  C135     1.0000 0.19206  0.73445  0.01617  Biso   1.000  C
  O106     1.0000 0.09528  0.82780  0.00048  Biso   1.000  O
  H57      1.0000 0.23297  0.64132  0.03272  Biso   1.000  H
  C136     1.0000 0.24158  0.69016  0.01692  Biso   1.000  C
  H58      1.0000 0.28631  0.13589  0.01894  Biso   1.000  H
  C137     1.0000 0.27232  0.18557  0.01238  Biso   1.000  C
  O107     1.0000 0.17449  0.09195  0.99764  Biso   1.000  O
  C138     1.0000 0.15589  0.15045  0.99949  Biso   1.000  C
  C139     1.0000 0.20683  0.20109  0.00283  Biso   1.000  C
  H59      1.0000 0.36815  0.22399  0.02083  Biso   1.000  H
  C140     1.0000 0.31736  0.23452  0.01381  Biso   1.000  C
  C141     1.0000 0.30005  0.29957  0.00621  Biso   1.000  C
  C142     1.0000 0.35106  0.34906  0.00557  Biso   1.000  C
  H60      1.0000 0.13762  0.27548  0.98918  Biso   1.000  H
  C143     1.0000 0.18839  0.26458  0.99584  Biso   1.000  C
  O108     1.0000 0.09710  0.16915  0.99752  Biso   1.000  O
  C144     1.0000 0.23342  0.31520  0.99734  Biso   1.000  C
  Zr17     1.0000 0.00101  0.11990  0.99810  Biso   1.000  Zr
  Zr18     1.0000 0.99959  0.87982  0.00478  Biso   1.000  Zr
  O109     1.0000 0.06972  0.93363  0.06882  Biso   1.000  O
  O110     1.0000 0.06631  0.06461  0.93047  Biso   1.000  O
  O111     1.0000 0.04832  0.94800  0.95139  Biso   1.000  O
  O112     1.0000 0.05180  0.05054  0.04864  Biso   1.000  O
  H61      1.0000 0.71865  0.13501  0.02444  Biso   1.000  H
  C145     1.0000 0.73041  0.18394  0.01134  Biso   1.000  C
  O113     1.0000 0.82795  0.09171  0.00047  Biso   1.000  O
  C146     1.0000 0.84620  0.15016  0.99630  Biso   1.000  C
  C147     1.0000 0.79433  0.19967  0.99456  Biso   1.000  C
  H62      1.0000 0.63517  0.22183  0.02620  Biso   1.000  H
  C148     1.0000 0.68448  0.23198  0.01189  Biso   1.000  C
  C149     1.0000 0.69950  0.29585  0.99544  Biso   1.000  C
  C150     1.0000 0.64858  0.34491  0.99821  Biso   1.000  C
  H63      1.0000 0.85995  0.27259  0.96487  Biso   1.000  H
  C151     1.0000 0.81029  0.26184  0.97747  Biso   1.000  C
  O114     1.0000 0.90473  0.16938  0.99467  Biso   1.000  O
  C152     1.0000 0.76404  0.31136  0.97665  Biso   1.000  C
  C153     1.0000 0.72625  0.81463  0.02406  Biso   1.000  C
  O115     1.0000 0.82785  0.90692  0.01358  Biso   1.000  O
  C154     1.0000 0.84475  0.84740  0.01341  Biso   1.000  C
  C155     1.0000 0.79255  0.79880  0.01473  Biso   1.000  C
  H64      1.0000 0.62953  0.77583  0.02695  Biso   1.000  H
  C156     1.0000 0.68041  0.76474  0.02136  Biso   1.000  C
  C157     1.0000 0.69864  0.70141  0.01143  Biso   1.000  C
  C158     1.0000 0.64893  0.64975  0.00693  Biso   1.000  C
  H65      1.0000 0.86057  0.72350  0.99943  Biso   1.000  H
  C159     1.0000 0.80972  0.73410  0.00571  Biso   1.000  C
  O116     1.0000 0.90327  0.82816  0.01075  Biso   1.000  O
  H66      1.0000 0.77806  0.63598  0.99781  Biso   1.000  H
  C160     1.0000 0.76426  0.68567  0.00437  Biso   1.000  C
  O117     1.0000 0.93514  0.06919  0.06901  Biso   1.000  O
  O118     1.0000 0.93048  0.93014  0.93781  Biso   1.000  O
  O119     1.0000 0.94968  0.04787  0.95162  Biso   1.000  O
  O120     1.0000 0.95211  0.95132  0.05439  Biso   1.000  O
  H67      1.0000 0.09767  0.90790  0.09570  Biso   1.000  H
  H68      1.0000 0.09277  0.09104  0.90277  Biso   1.000  H
  O121     1.0000 0.00022  0.82493  0.91284  Biso   1.000  O
  O122     1.0000 0.99982  0.83040  0.09803  Biso   1.000  O
  H69      1.0000 0.90250  0.90302  0.91236  Biso   1.000  H
  H70      1.0000 0.90887  0.09675  0.09578  Biso   1.000  H
  O123     1.0000 0.00566  0.17484  0.09053  Biso   1.000  O
  O124     1.0000 0.99676  0.16879  0.90329  Biso   1.000  O
  O125     1.0000 0.99745  0.89895  0.83302  Biso   1.000  O
  O126     1.0000 0.99445  0.09016  0.82788  Biso   1.000  O
  O127     1.0000 0.00816  0.09918  0.16911  Biso   1.000  O
  O128     1.0000 0.00245  0.90808  0.17475  Biso   1.000  O
  H71      1.0000 0.99408  0.27441  0.86381  Biso   1.000  H
  C161     1.0000 0.99464  0.26447  0.81267  Biso   1.000  C
  C162     1.0000 0.99467  0.14975  0.84479  Biso   1.000  C
  C163     1.0000 0.99406  0.19939  0.79401  Biso   1.000  C
  H72      1.0000 0.99672  0.36386  0.78348  Biso   1.000  H
  C164     1.0000 0.99631  0.31405  0.76856  Biso   1.000  C
  C165     1.0000 0.99753  0.29889  0.70272  Biso   1.000  C
  C166     1.0000 0.99843  0.34956  0.65223  Biso   1.000  C
  C167     1.0000 0.99498  0.18421  0.72727  Biso   1.000  C
  H73      1.0000 0.99737  0.22486  0.63200  Biso   1.000  H
  C168     1.0000 0.99683  0.23526  0.68305  Biso   1.000  C
  C169     1.0000 0.00454  0.72228  0.82135  Biso   1.000  C
  C170     1.0000 0.00023  0.84092  0.85293  Biso   1.000  C
  C171     1.0000 0.00269  0.78869  0.80469  Biso   1.000  C
  H74      1.0000 0.00629  0.62588  0.78286  Biso   1.000  H
  C172     1.0000 0.00593  0.67668  0.77129  Biso   1.000  C
  C173     1.0000 0.00591  0.69494  0.70719  Biso   1.000  C
  C174     1.0000 0.00461  0.64541  0.65516  Biso   1.000  C
  H75      1.0000 0.00256  0.85658  0.72804  Biso   1.000  H
  C175     1.0000 0.00342  0.80577  0.73925  Biso   1.000  C
  H76      1.0000 0.00577  0.77417  0.64067  Biso   1.000  H
  C176     1.0000 0.00515  0.76046  0.69085  Biso   1.000  C
  H77      1.0000 0.01016  0.28865  0.13352  Biso   1.000  H
  C177     1.0000 0.01049  0.27439  0.18358  Biso   1.000  C
  C178     1.0000 0.00842  0.15743  0.14937  Biso   1.000  C
  C179     1.0000 0.01065  0.20871  0.19956  Biso   1.000  C
  H78      1.0000 0.00941  0.37030  0.22156  Biso   1.000  H
  C180     1.0000 0.01013  0.31940  0.23251  Biso   1.000  C
  C181     1.0000 0.00990  0.30189  0.29798  Biso   1.000  C
  C182     1.0000 0.00527  0.35254  0.34770  Biso   1.000  C
  H79      1.0000 0.01228  0.13942  0.27483  Biso   1.000  H
  C183     1.0000 0.01166  0.19024  0.26351  Biso   1.000  C
  C184     1.0000 0.01161  0.23520  0.31394  Biso   1.000  C
  H80      1.0000 0.99828  0.71998  0.13917  Biso   1.000  H
  C185     1.0000 0.99909  0.73323  0.18949  Biso   1.000  C
  C186     1.0000 0.00039  0.84960  0.15643  Biso   1.000  C
  C187     1.0000 0.99979  0.79854  0.20664  Biso   1.000  C
  H81      1.0000 0.99828  0.63668  0.22587  Biso   1.000  H
  C188     1.0000 0.99915  0.68742  0.23751  Biso   1.000  C
  C189     1.0000 0.99960  0.70411  0.30308  Biso   1.000  C
  C190     1.0000 0.99769  0.65247  0.35154  Biso   1.000  C
  H82      1.0000 0.00155  0.86696  0.28270  Biso   1.000  H
  C191     1.0000 0.00051  0.81626  0.27079  Biso   1.000  C
  C192     1.0000 0.00031  0.77043  0.32036  Biso   1.000  C
  N1       1.0000 0.00275  0.79229  0.38271  Biso   1.000  N
  H83      1.0000 0.99149  0.75940  0.41687  Biso   1.000  H
  H84      1.0000 0.98812  0.83799  0.38983  Biso   1.000  H
  N2       1.0000 0.99240  0.12261  0.70413  Biso   1.000  N
  H85      1.0000 0.00844  0.11552  0.65884  Biso   1.000  H
  H86      1.0000 0.00020  0.08738  0.73693  Biso   1.000  H
  N3       1.0000 0.49913  0.37460  0.29436  Biso   1.000  N
  H87      1.0000 0.51756  0.38067  0.33892  Biso   1.000  H
  H88      1.0000 0.50851  0.40940  0.26152  Biso   1.000  H
  N4       1.0000 0.46103  0.62862  0.71359  Biso   1.000  N
  H89      1.0000 0.45701  0.62089  0.66593  Biso   1.000  H
  H90      1.0000 0.46826  0.59124  0.74384  Biso   1.000  H
  N5       1.0000 0.78913  0.96108  0.37930  Biso   1.000  N
  H91      1.0000 0.82948  0.93405  0.38236  Biso   1.000  H
  H92      1.0000 0.75468  0.95325  0.41294  Biso   1.000  H
  N6       1.0000 0.79287  0.87758  0.52603  Biso   1.000  N
  H93      1.0000 0.75836  0.91049  0.53675  Biso   1.000  H
  H94      1.0000 0.83417  0.88078  0.55182  Biso   1.000  H
  N7       1.0000 0.79534  0.51951  0.87947  Biso   1.000  N
  H95      1.0000 0.83619  0.54597  0.88235  Biso   1.000  H
  H96      1.0000 0.76033  0.53008  0.91191  Biso   1.000  H
  N8       1.0000 0.78423  0.37131  0.95897  Biso   1.000  N
  H97      1.0000 0.75043  0.40572  0.95225  Biso   1.000  H
  H98      1.0000 0.82510  0.37452  0.93269  Biso   1.000  H
  N9       1.0000 0.70209  0.97606  0.88122  Biso   1.000  N
  H99      1.0000 0.73655  0.96895  0.91510  Biso   1.000  H
  H100     1.0000 0.66091  0.95044  0.88537  Biso   1.000  H
  N10      1.0000 0.70407  0.37855  0.50892  Biso   1.000  N
  H101     1.0000 0.65770  0.38539  0.49555  Biso   1.000  H
  H102     1.0000 0.73617  0.41349  0.49766  Biso   1.000  H
  N11      1.0000 0.71430  0.54619  0.37355  Biso   1.000  N
  H103     1.0000 0.74910  0.55612  0.40631  Biso   1.000  H
  H104     1.0000 0.67546  0.57564  0.37347  Biso   1.000  H
  N12      1.0000 0.70448  0.87650  0.03366  Biso   1.000  N
  H105     1.0000 0.66258  0.88041  0.05836  Biso   1.000  H
  H106     1.0000 0.73922  0.90901  0.04498  Biso   1.000  H
  N13      1.0000 0.30018  0.99975  0.11987  Biso   1.000  N
  H107     1.0000 0.26613  0.99195  0.08569  Biso   1.000  H
  H108     1.0000 0.34465  0.98106  0.11310  Biso   1.000  H
  N14      1.0000 0.21040  0.37637  0.99101  Biso   1.000  N
  H109     1.0000 0.16624  0.38204  0.97131  Biso   1.000  H
  H110     1.0000 0.24338  0.41178  0.98535  Biso   1.000  H
  N15      1.0000 0.52859  0.20560  0.88257  Biso   1.000  N
  H111     1.0000 0.53575  0.24006  0.91635  Biso   1.000  H
  H112     1.0000 0.55401  0.16447  0.88728  Biso   1.000  H
  N16      1.0000 0.48916  0.62618  0.29152  Biso   1.000  N
  H113     1.0000 0.46566  0.62212  0.33393  Biso   1.000  H
  H114     1.0000 0.47934  0.59228  0.25787  Biso   1.000  H
  N17      1.0000 0.28473  0.45865  0.37358  Biso   1.000  N
  H115     1.0000 0.32405  0.42996  0.37523  Biso   1.000  H
  H116     1.0000 0.25039  0.45097  0.40738  Biso   1.000  H
  N18      1.0000 0.29186  0.37645  0.52440  Biso   1.000  N
  H117     1.0000 0.25717  0.40950  0.53402  Biso   1.000  H
  H118     1.0000 0.33289  0.37979  0.55055  Biso   1.000  H
  N19      1.0000 0.37405  0.03090  0.78978  Biso   1.000  N
  H119     1.0000 0.40843  0.03866  0.75595  Biso   1.000  H
  H120     1.0000 0.37591  0.05854  0.82966  Biso   1.000  H
  N20      1.0000 0.37926  0.78992  0.95981  Biso   1.000  N
  H121     1.0000 0.41352  0.75549  0.95452  Biso   1.000  H
  H122     1.0000 0.38146  0.82752  0.92917  Biso   1.000  H
  N21      1.0000 0.20857  0.53202  0.87767  Biso   1.000  N
  H123     1.0000 0.24380  0.54281  0.90982  Biso   1.000  H
  H124     1.0000 0.16801  0.55888  0.88041  Biso   1.000  H
  N22      1.0000 0.20631  0.87637  0.49465  Biso   1.000  N
  H125     1.0000 0.16174  0.88249  0.47593  Biso   1.000  H
  H126     1.0000 0.23970  0.91102  0.48653  Biso   1.000  H
  N23      1.0000 0.00259  0.70075  0.88371  Biso   1.000  N
  H127     1.0000 0.01101  0.73443  0.91800  Biso   1.000  H
  H128     1.0000 0.01874  0.65576  0.89190  Biso   1.000  H
  N24      1.0000 0.01474  0.21207  0.37562  Biso   1.000  N
  H129     1.0000 0.00150  0.16589  0.38220  Biso   1.000  H
  H130     1.0000 0.00456  0.24420  0.41077  Biso   1.000  H
