data_image0
_cell_length_a       28.2597
_cell_length_b       28.2491
_cell_length_c       6.39791
_cell_angle_alpha    90.0305
_cell_angle_beta     90.0172
_cell_angle_gamma    120.057

_symmetry_space_group_name_H-M    "P 1"
_symmetry_int_tables_number       1

loop_
  _symmetry_equiv_pos_as_xyz
  'x, y, z'

loop_
  _atom_site_label
  _atom_site_occupancy
  _atom_site_fract_x
  _atom_site_fract_y
  _atom_site_fract_z
  _atom_site_thermal_displace_type
  _atom_site_B_iso_or_equiv
  _atom_site_type_symbol
  Cu1      1.0000 0.39182  0.04340  0.63460  Biso   1.000  Cu
  Cu2      1.0000 0.95616  0.34961  0.63495  Biso   1.000  Cu
  Cu3      1.0000 0.64990  0.60720  0.64317  Biso   1.000  Cu
  Cu4      1.0000 0.05784  0.37510  0.96967  Biso   1.000  Cu
  Cu5      1.0000 0.62486  0.68352  0.97635  Biso   1.000  Cu
  Cu6      1.0000 0.31625  0.94135  0.96802  Biso   1.000  Cu
  Cu7      1.0000 0.72644  0.70964  0.31039  Biso   1.000  Cu
  Cu8      1.0000 0.28974  0.01670  0.30081  Biso   1.000  Cu
  Cu9      1.0000 0.98227  0.27377  0.30265  Biso   1.000  Cu
  Cu10     1.0000 0.60614  0.95627  0.35615  Biso   1.000  Cu
  Cu11     1.0000 0.04193  0.64981  0.35603  Biso   1.000  Cu
  Cu12     1.0000 0.34954  0.39345  0.35685  Biso   1.000  Cu
  Cu13     1.0000 0.27341  0.29144  0.68885  Biso   1.000  Cu
  Cu14     1.0000 0.70808  0.98305  0.68960  Biso   1.000  Cu
  Cu15     1.0000 0.01628  0.72501  0.68901  Biso   1.000  Cu
  Cu16     1.0000 0.93983  0.62332  0.02303  Biso   1.000  Cu
  Cu17     1.0000 0.37516  0.31732  0.02288  Biso   1.000  Cu
  Cu18     1.0000 0.68172  0.05853  0.02253  Biso   1.000  Cu
  S1       1.0000 0.37196  0.09474  0.42026  Biso   1.000  S
  S2       1.0000 0.90464  0.27835  0.42008  Biso   1.000  S
  S3       1.0000 0.72070  0.62683  0.42732  Biso   1.000  S
  S4       1.0000 0.03873  0.42702  0.75406  Biso   1.000  S
  S5       1.0000 0.57295  0.61281  0.76091  Biso   1.000  S
  S6       1.0000 0.38721  0.96105  0.75274  Biso   1.000  S
  S7       1.0000 0.70714  0.76111  0.09479  Biso   1.000  S
  S8       1.0000 0.23833  0.94541  0.08644  Biso   1.000  S
  S9       1.0000 0.05349  0.29286  0.08959  Biso   1.000  S
  S10      1.0000 0.62591  0.90514  0.57152  Biso   1.000  S
  S11      1.0000 0.09420  0.72100  0.57009  Biso   1.000  S
  S12      1.0000 0.27839  0.37386  0.57105  Biso   1.000  S
  S13      1.0000 0.29295  0.23983  0.90372  Biso   1.000  S
  S14      1.0000 0.75956  0.05424  0.90419  Biso   1.000  S
  S15      1.0000 0.94555  0.70603  0.90484  Biso   1.000  S
  S16      1.0000 0.95953  0.57200  0.23755  Biso   1.000  S
  S17      1.0000 0.42658  0.38823  0.23899  Biso   1.000  S
  S18      1.0000 0.61070  0.03845  0.23824  Biso   1.000  S
  O1       1.0000 0.34991  0.05065  0.87523  Biso   1.000  O
  O2       1.0000 0.94897  0.30052  0.87536  Biso   1.000  O
  O3       1.0000 0.69927  0.64844  0.88515  Biso   1.000  O
  O4       1.0000 0.01582  0.38248  0.20878  Biso   1.000  O
  O5       1.0000 0.61622  0.63426  0.21849  Biso   1.000  O
  O6       1.0000 0.36526  0.98336  0.20845  Biso   1.000  O
  O7       1.0000 0.68519  0.71759  0.55166  Biso   1.000  O
  O8       1.0000 0.28256  0.96780  0.54183  Biso   1.000  O
  O9       1.0000 0.03194  0.31636  0.54232  Biso   1.000  O
  O10      1.0000 0.64774  0.94880  0.11496  Biso   1.000  O
  O11      1.0000 0.05030  0.69877  0.11436  Biso   1.000  O
  O12      1.0000 0.30025  0.35167  0.11472  Biso   1.000  O
  O13      1.0000 0.31515  0.28388  0.44813  Biso   1.000  O
  O14      1.0000 0.71532  0.03211  0.44834  Biso   1.000  O
  O15      1.0000 0.96667  0.68360  0.44798  Biso   1.000  O
  O16      1.0000 0.98138  0.61588  0.78154  Biso   1.000  O
  O17      1.0000 0.38333  0.36684  0.78155  Biso   1.000  O
  O18      1.0000 0.63266  0.01678  0.78148  Biso   1.000  O
  O19      1.0000 0.29164  0.06478  0.06362  Biso   1.000  O
  O20      1.0000 0.93440  0.22795  0.06400  Biso   1.000  O
  O21      1.0000 0.77208  0.70667  0.07284  Biso   1.000  O
  O22      1.0000 0.95836  0.39774  0.39780  Biso   1.000  O
  O23      1.0000 0.60121  0.56141  0.40611  Biso   1.000  O
  O24      1.0000 0.43786  0.04156  0.39658  Biso   1.000  O
  O25      1.0000 0.62719  0.73207  0.73981  Biso   1.000  O
  O26      1.0000 0.26834  0.89542  0.73074  Biso   1.000  O
  O27      1.0000 0.10423  0.37267  0.73648  Biso   1.000  O
  O28      1.0000 0.70595  0.93464  0.92671  Biso   1.000  O
  O29      1.0000 0.06460  0.77116  0.92550  Biso   1.000  O
  O30      1.0000 0.22753  0.29366  0.92597  Biso   1.000  O
  O31      1.0000 0.37284  0.26892  0.25956  Biso   1.000  O
  O32      1.0000 0.72973  0.10458  0.25983  Biso   1.000  O
  O33      1.0000 0.89376  0.62565  0.26017  Biso   1.000  O
  O34      1.0000 0.03960  0.60175  0.59313  Biso   1.000  O
  O35      1.0000 0.39804  0.43967  0.59428  Biso   1.000  O
  O36      1.0000 0.56007  0.95833  0.59371  Biso   1.000  O
  C1       1.0000 0.34989  0.13308  0.56616  Biso   1.000  C
  C2       1.0000 0.86625  0.21786  0.56566  Biso   1.000  C
  C3       1.0000 0.78139  0.64903  0.57156  Biso   1.000  C
  C4       1.0000 0.01666  0.46549  0.89930  Biso   1.000  C
  C5       1.0000 0.53419  0.55223  0.90533  Biso   1.000  C
  C6       1.0000 0.44748  0.98267  0.89910  Biso   1.000  C
  C7       1.0000 0.68418  0.79911  0.23805  Biso   1.000  C
  C8       1.0000 0.20029  0.88490  0.23225  Biso   1.000  C
  C9       1.0000 0.11429  0.31585  0.23427  Biso   1.000  C
  C10      1.0000 0.64862  0.86708  0.42742  Biso   1.000  C
  C11      1.0000 0.13223  0.78171  0.42536  Biso   1.000  C
  C12      1.0000 0.21772  0.35124  0.42590  Biso   1.000  C
  C13      1.0000 0.31531  0.20153  0.75922  Biso   1.000  C
  C14      1.0000 0.79777  0.11480  0.75868  Biso   1.000  C
  C15      1.0000 0.88474  0.68363  0.76112  Biso   1.000  C
  C16      1.0000 0.98196  0.53389  0.09209  Biso   1.000  C
  C17      1.0000 0.46518  0.44894  0.09509  Biso   1.000  C
  C18      1.0000 0.55023  0.01645  0.09274  Biso   1.000  C
  C19      1.0000 0.35355  0.17880  0.46382  Biso   1.000  C
  C20      1.0000 0.82053  0.17572  0.46305  Biso   1.000  C
  C21      1.0000 0.82331  0.64556  0.46706  Biso   1.000  C
  C22      1.0000 0.02028  0.51119  0.79678  Biso   1.000  C
  C23      1.0000 0.48852  0.51038  0.80130  Biso   1.000  C
  C24      1.0000 0.48932  0.97862  0.79682  Biso   1.000  C
  C25      1.0000 0.68714  0.84432  0.13347  Biso   1.000  C
  C26      1.0000 0.15477  0.84255  0.12960  Biso   1.000  C
  C27      1.0000 0.15659  0.31284  0.13078  Biso   1.000  C
  C28      1.0000 0.64557  0.82184  0.53179  Biso   1.000  C
  C29      1.0000 0.17770  0.82409  0.52826  Biso   1.000  C
  C30      1.0000 0.17549  0.35437  0.52923  Biso   1.000  C
  C31      1.0000 0.31180  0.15589  0.86196  Biso   1.000  C
  C32      1.0000 0.84344  0.15700  0.86138  Biso   1.000  C
  C33      1.0000 0.84281  0.68704  0.86575  Biso   1.000  C
  C34      1.0000 0.97846  0.48829  0.19473  Biso   1.000  C
  C35      1.0000 0.51077  0.49082  0.19934  Biso   1.000  C
  C36      1.0000 0.50834  0.02043  0.19515  Biso   1.000  C
  H1       1.0000 0.36994  0.18819  0.30600  Biso   1.000  H
  H2       1.0000 0.81120  0.18268  0.30501  Biso   1.000  H
  H3       1.0000 0.81600  0.62931  0.30886  Biso   1.000  H
  H4       1.0000 0.03665  0.52059  0.63890  Biso   1.000  H
  H5       1.0000 0.47946  0.51769  0.64335  Biso   1.000  H
  H6       1.0000 0.48221  0.96228  0.63874  Biso   1.000  H
  H7       1.0000 0.70344  0.85342  0.97541  Biso   1.000  H
  H8       1.0000 0.14532  0.84935  0.97155  Biso   1.000  H
  H9       1.0000 0.14962  0.29664  0.97254  Biso   1.000  H
  H10      1.0000 0.62926  0.81269  0.68980  Biso   1.000  H
  H11      1.0000 0.18710  0.81730  0.68643  Biso   1.000  H
  H12      1.0000 0.18257  0.37073  0.68722  Biso   1.000  H
  H13      1.0000 0.29554  0.14657  0.02003  Biso   1.000  H
  H14      1.0000 0.85277  0.15007  0.01944  Biso   1.000  H
  H15      1.0000 0.85015  0.70328  0.02400  Biso   1.000  H
  H16      1.0000 0.96210  0.47890  0.35260  Biso   1.000  H
  H17      1.0000 0.51978  0.48349  0.35737  Biso   1.000  H
  H18      1.0000 0.51544  0.03683  0.35311  Biso   1.000  H
  C37      1.0000 0.32875  0.12162  0.77150  Biso   1.000  C
  C38      1.0000 0.87775  0.20827  0.77110  Biso   1.000  C
  C39      1.0000 0.79134  0.67003  0.77734  Biso   1.000  C
  C40      1.0000 0.99544  0.45402  0.10452  Biso   1.000  C
  C41      1.0000 0.54533  0.54224  0.11078  Biso   1.000  C
  C42      1.0000 0.45721  0.00387  0.10454  Biso   1.000  C
  C43      1.0000 0.66311  0.78780  0.44357  Biso   1.000  C
  C44      1.0000 0.21177  0.87541  0.43781  Biso   1.000  C
  C45      1.0000 0.12403  0.33695  0.43988  Biso   1.000  C
  C46      1.0000 0.66970  0.87843  0.22185  Biso   1.000  C
  C47      1.0000 0.12075  0.79121  0.21981  Biso   1.000  C
  C48      1.0000 0.20801  0.33016  0.22035  Biso   1.000  C
  C49      1.0000 0.33643  0.21297  0.55389  Biso   1.000  C
  C50      1.0000 0.78629  0.12440  0.55321  Biso   1.000  C
  C51      1.0000 0.87475  0.66252  0.55551  Biso   1.000  C
  C52      1.0000 0.00313  0.54537  0.88682  Biso   1.000  C
  C53      1.0000 0.45397  0.45895  0.88976  Biso   1.000  C
  C54      1.0000 0.54051  0.99532  0.88722  Biso   1.000  C
  C55      1.0000 0.32344  0.07546  0.90655  Biso   1.000  C
  C56      1.0000 0.92394  0.24918  0.90661  Biso   1.000  C
  C57      1.0000 0.75067  0.67505  0.91505  Biso   1.000  C
  C58      1.0000 0.98990  0.40785  0.24010  Biso   1.000  C
  C59      1.0000 0.59118  0.58287  0.24832  Biso   1.000  C
  C60      1.0000 0.41659  0.00964  0.23961  Biso   1.000  C
  C61      1.0000 0.65855  0.74229  0.58153  Biso   1.000  C
  C62      1.0000 0.25776  0.91648  0.57320  Biso   1.000  C
  C63      1.0000 0.08315  0.34190  0.57614  Biso   1.000  C
  C64      1.0000 0.67441  0.92414  0.08462  Biso   1.000  C
  C65      1.0000 0.07499  0.75011  0.08358  Biso   1.000  C
  C66      1.0000 0.24890  0.32523  0.08389  Biso   1.000  C
  C67      1.0000 0.34142  0.25882  0.41750  Biso   1.000  C
  C68      1.0000 0.74025  0.08345  0.41736  Biso   1.000  C
  C69      1.0000 0.91528  0.65726  0.41796  Biso   1.000  C
  C70      1.0000 0.00801  0.59122  0.75079  Biso   1.000  C
  C71      1.0000 0.40819  0.41826  0.75199  Biso   1.000  C
  C72      1.0000 0.58129  0.99011  0.75106  Biso   1.000  C
  O37      1.0000 0.47126  0.10490  0.80162  Biso   1.000  O
  O38      1.0000 0.89366  0.36603  0.80161  Biso   1.000  O
  O39      1.0000 0.63226  0.52750  0.80230  Biso   1.000  O
  O40      1.0000 0.13698  0.43778  0.13531  Biso   1.000  O
  O41      1.0000 0.56064  0.69921  0.13536  Biso   1.000  O
  O42      1.0000 0.29911  0.86165  0.13480  Biso   1.000  O
  O43      1.0000 0.80565  0.77140  0.47839  Biso   1.000  O
  O44      1.0000 0.22657  0.03298  0.45867  Biso   1.000  O
  O45      1.0000 0.96533  0.19458  0.46862  Biso   1.000  O
  O46      1.0000 0.52583  0.89374  0.19775  Biso   1.000  O
  O47      1.0000 0.10432  0.63199  0.19766  Biso   1.000  O
  O48      1.0000 0.36666  0.47309  0.19745  Biso   1.000  O
  O49      1.0000 0.19428  0.22925  0.52147  Biso   1.000  O
  O50      1.0000 0.77056  0.96634  0.52185  Biso   1.000  O
  O51      1.0000 0.03409  0.80481  0.52126  Biso   1.000  O
  O52      1.0000 0.86065  0.56197  0.85469  Biso   1.000  O
  O53      1.0000 0.43951  0.30093  0.87414  Biso   1.000  O
  O54      1.0000 0.69897  0.13866  0.86448  Biso   1.000  O
  C73      1.0000 0.22147  0.07422  0.44322  Biso   1.000  C
  C74      1.0000 0.92491  0.14779  0.44800  Biso   1.000  C
  C75      1.0000 0.85231  0.77763  0.45713  Biso   1.000  C
  C76      1.0000 0.88788  0.40682  0.78284  Biso   1.000  C
  C77      1.0000 0.59165  0.48081  0.78274  Biso   1.000  C
  C78      1.0000 0.51784  0.11079  0.78232  Biso   1.000  C
  C79      1.0000 0.55541  0.74036  0.11916  Biso   1.000  C
  C80      1.0000 0.25858  0.81484  0.11724  Biso   1.000  C
  C81      1.0000 0.18379  0.44409  0.11900  Biso   1.000  C
  C82      1.0000 0.77699  0.92602  0.54349  Biso   1.000  C
  C83      1.0000 0.07418  0.85177  0.54205  Biso   1.000  C
  C84      1.0000 0.14732  0.22229  0.54185  Biso   1.000  C
  C85      1.0000 0.44468  0.25972  0.88864  Biso   1.000  C
  C86      1.0000 0.73959  0.18535  0.88343  Biso   1.000  C
  C87      1.0000 0.81379  0.55521  0.87660  Biso   1.000  C
  C88      1.0000 0.11082  0.59169  0.21719  Biso   1.000  C
  C89      1.0000 0.40726  0.51972  0.21905  Biso   1.000  C
  C90      1.0000 0.47930  0.88786  0.21819  Biso   1.000  C
  N1       1.0000 0.19390  0.08303  0.28953  Biso   1.000  N
  N2       1.0000 0.91773  0.11260  0.29144  Biso   1.000  N
  N3       1.0000 0.88741  0.80531  0.30006  Biso   1.000  N
  N4       1.0000 0.86007  0.41465  0.62742  Biso   1.000  N
  N5       1.0000 0.58395  0.44542  0.62628  Biso   1.000  N
  N6       1.0000 0.55343  0.13860  0.62672  Biso   1.000  N
  N7       1.0000 0.52805  0.74906  0.96435  Biso   1.000  N
  N8       1.0000 0.25059  0.77909  0.96180  Biso   1.000  N
  N9       1.0000 0.21988  0.47228  0.96521  Biso   1.000  N
  N10      1.0000 0.80435  0.91870  0.70206  Biso   1.000  N
  N11      1.0000 0.08097  0.88692  0.69833  Biso   1.000  N
  N12      1.0000 0.11216  0.19397  0.69804  Biso   1.000  N
  N13      1.0000 0.47210  0.25084  0.04272  Biso   1.000  N
  N14      1.0000 0.74732  0.22084  0.03959  Biso   1.000  N
  N15      1.0000 0.77889  0.52704  0.03359  Biso   1.000  N
  N16      1.0000 0.13873  0.58442  0.37387  Biso   1.000  N
  N17      1.0000 0.41443  0.55476  0.37612  Biso   1.000  N
  N18      1.0000 0.44391  0.85980  0.37405  Biso   1.000  N
  H19      1.0000 0.23937  0.10764  0.55849  Biso   1.000  H
  H20      1.0000 0.89094  0.13083  0.56087  Biso   1.000  H
  H21      1.0000 0.86924  0.76064  0.57012  Biso   1.000  H
  H22      1.0000 0.90535  0.44061  0.89664  Biso   1.000  H
  H23      1.0000 0.55791  0.46410  0.89660  Biso   1.000  H
  H24      1.0000 0.53429  0.09345  0.89588  Biso   1.000  H
  H25      1.0000 0.57296  0.77374  0.23465  Biso   1.000  H
  H26      1.0000 0.22514  0.79830  0.23231  Biso   1.000  H
  H27      1.0000 0.20009  0.42694  0.23395  Biso   1.000  H
  H28      1.0000 0.76057  0.89220  0.42972  Biso   1.000  H
  H29      1.0000 0.10819  0.86902  0.42938  Biso   1.000  H
  H30      1.0000 0.13008  0.23896  0.42874  Biso   1.000  H
  H31      1.0000 0.42704  0.22649  0.77247  Biso   1.000  H
  H32      1.0000 0.77328  0.20200  0.76936  Biso   1.000  H
  H33      1.0000 0.79649  0.57198  0.76428  Biso   1.000  H
  H34      1.0000 0.09405  0.55791  0.10325  Biso   1.000  H
  H35      1.0000 0.44140  0.53664  0.10693  Biso   1.000  H
  H36      1.0000 0.46274  0.90537  0.10584  Biso   1.000  H
  C91      1.0000 0.16986  0.04493  0.11613  Biso   1.000  C
  C92      1.0000 0.95676  0.12853  0.12066  Biso   1.000  C
  C93      1.0000 0.87181  0.82870  0.12924  Biso   1.000  C
  C94      1.0000 0.83633  0.37584  0.45601  Biso   1.000  C
  C95      1.0000 0.62256  0.46100  0.45419  Biso   1.000  C
  C96      1.0000 0.53841  0.16248  0.45597  Biso   1.000  C
  C97      1.0000 0.50445  0.71089  0.79103  Biso   1.000  C
  C98      1.0000 0.28893  0.79436  0.78895  Biso   1.000  C
  C99      1.0000 0.20504  0.49573  0.79243  Biso   1.000  C
  C100     1.0000 0.82690  0.95763  0.87374  Biso   1.000  C
  C101     1.0000 0.04165  0.87086  0.86817  Biso   1.000  C
  C102     1.0000 0.12822  0.17113  0.86932  Biso   1.000  C
  C103     1.0000 0.49536  0.28859  0.21750  Biso   1.000  C
  C104     1.0000 0.70875  0.20527  0.21181  Biso   1.000  C
  C105     1.0000 0.79508  0.50382  0.20315  Biso   1.000  C
  C106     1.0000 0.16145  0.62321  0.54588  Biso   1.000  C
  C107     1.0000 0.37513  0.53879  0.54601  Biso   1.000  C
  C108     1.0000 0.45938  0.83608  0.54411  Biso   1.000  C
  C109     1.0000 0.19097  0.13311  0.28529  Biso   1.000  C
  C110     1.0000 0.86817  0.05920  0.27962  Biso   1.000  C
  C111     1.0000 0.94053  0.80861  0.28831  Biso   1.000  C
  C112     1.0000 0.85683  0.46454  0.61838  Biso   1.000  C
  C113     1.0000 0.53426  0.39208  0.61643  Biso   1.000  C
  C114     1.0000 0.60648  0.14171  0.61687  Biso   1.000  C
  C115     1.0000 0.52497  0.79905  0.95888  Biso   1.000  C
  C116     1.0000 0.20096  0.72564  0.95442  Biso   1.000  C
  C117     1.0000 0.27316  0.47583  0.95841  Biso   1.000  C
  C118     1.0000 0.80881  0.86951  0.71309  Biso   1.000  C
  C119     1.0000 0.13037  0.94046  0.71058  Biso   1.000  C
  C120     1.0000 0.05856  0.18962  0.70918  Biso   1.000  C
  C121     1.0000 0.47576  0.20116  0.04588  Biso   1.000  C
  C122     1.0000 0.79681  0.27434  0.04835  Biso   1.000  C
  C123     1.0000 0.72558  0.52326  0.04763  Biso   1.000  C
  C124     1.0000 0.14335  0.53532  0.38315  Biso   1.000  C
  C125     1.0000 0.46417  0.60797  0.38952  Biso   1.000  C
  C126     1.0000 0.39075  0.85637  0.38549  Biso   1.000  C
  H37      1.0000 0.12588  0.03044  0.10594  Biso   1.000  H
  H38      1.0000 0.97158  0.09938  0.10711  Biso   1.000  H
  H39      1.0000 0.90105  0.87273  0.11693  Biso   1.000  H
  H40      1.0000 0.79246  0.36164  0.44302  Biso   1.000  H
  H41      1.0000 0.63714  0.43167  0.44005  Biso   1.000  H
  H42      1.0000 0.56827  0.20633  0.44339  Biso   1.000  H
  H43      1.0000 0.46050  0.69636  0.77895  Biso   1.000  H
  H44      1.0000 0.30350  0.76501  0.77515  Biso   1.000  H
  H45      1.0000 0.23438  0.53975  0.78066  Biso   1.000  H
  H46      1.0000 0.87056  0.97148  0.89276  Biso   1.000  H
  H47      1.0000 0.02643  0.89971  0.88006  Biso   1.000  H
  H48      1.0000 0.09917  0.12710  0.88318  Biso   1.000  H
  H49      1.0000 0.53933  0.30328  0.23018  Biso   1.000  H
  H50      1.0000 0.69370  0.23425  0.22479  Biso   1.000  H
  H51      1.0000 0.76562  0.45991  0.21755  Biso   1.000  H
  H52      1.0000 0.20546  0.63827  0.56034  Biso   1.000  H
  H53      1.0000 0.36079  0.56830  0.56030  Biso   1.000  H
  H54      1.0000 0.42981  0.79214  0.55654  Biso   1.000  H
  H55      1.0000 0.17667  0.01046  0.14151  Biso   1.000  H
  H56      1.0000 0.99093  0.16972  0.15172  Biso   1.000  H
  H57      1.0000 0.83063  0.82168  0.15927  Biso   1.000  H
  H58      1.0000 0.84266  0.34125  0.48613  Biso   1.000  H
  H59      1.0000 0.65693  0.50215  0.48422  Biso   1.000  H
  H60      1.0000 0.49755  0.15627  0.48661  Biso   1.000  H
  H61      1.0000 0.51122  0.67645  0.81823  Biso   1.000  H
  H62      1.0000 0.32331  0.83554  0.81806  Biso   1.000  H
  H63      1.0000 0.16376  0.48876  0.81977  Biso   1.000  H
  H64      1.0000 0.82117  0.99242  0.83922  Biso   1.000  H
  H65      1.0000 0.00777  0.82950  0.83721  Biso   1.000  H
  H66      1.0000 0.16944  0.17830  0.83873  Biso   1.000  H
  H67      1.0000 0.48842  0.32297  0.19181  Biso   1.000  H
  H68      1.0000 0.67468  0.16390  0.18292  Biso   1.000  H
  H69      1.0000 0.83596  0.51038  0.16981  Biso   1.000  H
  H70      1.0000 0.15426  0.65724  0.51536  Biso   1.000  H
  H71      1.0000 0.34071  0.49787  0.51321  Biso   1.000  H
  H72      1.0000 0.50036  0.84266  0.51281  Biso   1.000  H
  H73      1.0000 0.18937  0.06497  0.96811  Biso   1.000  H
  H74      1.0000 0.93744  0.12922  0.97239  Biso   1.000  H
  H75      1.0000 0.87134  0.80891  0.98064  Biso   1.000  H
  H76      1.0000 0.85641  0.39507  0.30774  Biso   1.000  H
  H77      1.0000 0.60297  0.46162  0.30651  Biso   1.000  H
  H78      1.0000 0.53735  0.14241  0.30736  Biso   1.000  H
  H79      1.0000 0.52432  0.73081  0.64335  Biso   1.000  H
  H80      1.0000 0.26919  0.79480  0.64141  Biso   1.000  H
  H81      1.0000 0.20511  0.47596  0.64442  Biso   1.000  H
  H82      1.0000 0.80545  0.93867  0.02032  Biso   1.000  H
  H83      1.0000 0.06084  0.87054  0.01727  Biso   1.000  H
  H84      1.0000 0.12885  0.19121  0.01739  Biso   1.000  H
  H85      1.0000 0.47537  0.26819  0.36444  Biso   1.000  H
  H86      1.0000 0.72856  0.20524  0.35970  Biso   1.000  H
  H87      1.0000 0.79661  0.52410  0.35174  Biso   1.000  H
  H88      1.0000 0.14130  0.60361  0.69361  Biso   1.000  H
  H89      1.0000 0.39403  0.53745  0.69447  Biso   1.000  H
  H90      1.0000 0.46032  0.85597  0.69305  Biso   1.000  H
  H91      1.0000 0.21308  0.15858  0.14985  Biso   1.000  H
  H92      1.0000 0.84319  0.05184  0.41976  Biso   1.000  H
  H93      1.0000 0.94290  0.78641  0.15109  Biso   1.000  H
  H94      1.0000 0.87901  0.48948  0.48194  Biso   1.000  H
  H95      1.0000 0.50983  0.38488  0.75807  Biso   1.000  H
  H96      1.0000 0.60900  0.11943  0.48024  Biso   1.000  H
  H97      1.0000 0.54714  0.82444  0.82335  Biso   1.000  H
  H98      1.0000 0.17672  0.71889  0.09626  Biso   1.000  H
  H99      1.0000 0.27629  0.45369  0.82252  Biso   1.000  H
  H100     1.0000 0.78785  0.84518  0.85225  Biso   1.000  H
  H101     1.0000 0.15506  0.94313  0.84778  Biso   1.000  H
  H102     1.0000 0.05103  0.20701  0.56874  Biso   1.000  H
  H103     1.0000 0.45781  0.17726  0.90355  Biso   1.000  H
  H104     1.0000 0.82143  0.28127  0.90749  Biso   1.000  H
  H105     1.0000 0.71778  0.54068  0.90788  Biso   1.000  H
  H106     1.0000 0.12592  0.51052  0.24227  Biso   1.000  H
  H107     1.0000 0.48932  0.61547  0.24977  Biso   1.000  H
  H108     1.0000 0.38369  0.87436  0.24574  Biso   1.000  H
  H109     1.0000 0.20931  0.15713  0.42703  Biso   1.000  H
  H110     1.0000 0.87872  0.02679  0.26877  Biso   1.000  H
  H111     1.0000 0.94751  0.79056  0.42798  Biso   1.000  H
  H112     1.0000 0.87493  0.48924  0.75896  Biso   1.000  H
  H113     1.0000 0.54467  0.35959  0.60438  Biso   1.000  H
  H114     1.0000 0.61317  0.12369  0.75729  Biso   1.000  H
  H115     1.0000 0.54310  0.82314  0.10064  Biso   1.000  H
  H116     1.0000 0.21143  0.69316  0.94411  Biso   1.000  H
  H117     1.0000 0.27957  0.45790  0.09968  Biso   1.000  H
  H118     1.0000 0.79010  0.84390  0.57506  Biso   1.000  H
  H119     1.0000 0.15551  0.94791  0.57086  Biso   1.000  H
  H120     1.0000 0.02638  0.14650  0.72012  Biso   1.000  H
  H121     1.0000 0.51874  0.21157  0.05360  Biso   1.000  H
  H122     1.0000 0.78618  0.30672  0.05796  Biso   1.000  H
  H123     1.0000 0.69316  0.48027  0.05977  Biso   1.000  H
  H124     1.0000 0.18652  0.54650  0.39341  Biso   1.000  H
  H125     1.0000 0.45385  0.64054  0.40094  Biso   1.000  H
  H126     1.0000 0.35806  0.81344  0.39510  Biso   1.000  H
  H127     1.0000 0.14817  0.12328  0.27820  Biso   1.000  H
  H128     1.0000 0.84338  0.05666  0.14296  Biso   1.000  H
  H129     1.0000 0.97333  0.85149  0.27873  Biso   1.000  H
  H130     1.0000 0.81396  0.45442  0.60939  Biso   1.000  H
  H131     1.0000 0.50902  0.38948  0.48118  Biso   1.000  H
  H132     1.0000 0.63935  0.18456  0.60754  Biso   1.000  H
  H133     1.0000 0.48215  0.78912  0.95087  Biso   1.000  H
  H134     1.0000 0.17549  0.72253  0.81925  Biso   1.000  H
  H135     1.0000 0.30586  0.51877  0.94978  Biso   1.000  H
  H136     1.0000 0.85197  0.88049  0.71859  Biso   1.000  H
  H137     1.0000 0.11964  0.97276  0.72077  Biso   1.000  H
  H138     1.0000 0.05578  0.21182  0.84559  Biso   1.000  H
  H139     1.0000 0.45369  0.17535  0.18063  Biso   1.000  H
  H140     1.0000 0.82200  0.27743  0.18439  Biso   1.000  H
  H141     1.0000 0.72349  0.54572  0.18453  Biso   1.000  H
  H142     1.0000 0.12132  0.51004  0.51908  Biso   1.000  H
  H143     1.0000 0.48870  0.61013  0.52651  Biso   1.000  H
  H144     1.0000 0.38833  0.87855  0.52263  Biso   1.000  H
