data_image0
_cell_length_a       18.9239
_cell_length_b       18.9239
_cell_length_c       17.9559
_cell_angle_alpha    90
_cell_angle_beta     90
_cell_angle_gamma    90

_symmetry_space_group_name_H-M    "P 1"
_symmetry_int_tables_number       1

loop_
  _symmetry_equiv_pos_as_xyz
  'x, y, z'

loop_
  _atom_site_label
  _atom_site_occupancy
  _atom_site_fract_x
  _atom_site_fract_y
  _atom_site_fract_z
  _atom_site_thermal_displace_type
  _atom_site_B_iso_or_equiv
  _atom_site_type_symbol
  C1       1.0000 0.34822  0.00000  0.50000  Biso   1.000  C
  C2       1.0000 0.65178  0.00000  0.50000  Biso   1.000  C
  C3       1.0000 0.00000  0.65178  0.50000  Biso   1.000  C
  C4       1.0000 0.00000  0.34822  0.50000  Biso   1.000  C
  C5       1.0000 0.50000  0.84822  0.00000  Biso   1.000  C
  C6       1.0000 0.50000  0.15178  0.00000  Biso   1.000  C
  C7       1.0000 0.15178  0.50000  0.00000  Biso   1.000  C
  C8       1.0000 0.84822  0.50000  0.00000  Biso   1.000  C
  C9       1.0000 0.92659  0.50000  0.00000  Biso   1.000  C
  C10      1.0000 0.07341  0.50000  0.00000  Biso   1.000  C
  C11      1.0000 0.50000  0.07341  0.00000  Biso   1.000  C
  C12      1.0000 0.50000  0.92659  0.00000  Biso   1.000  C
  C13      1.0000 0.00000  0.42659  0.50000  Biso   1.000  C
  C14      1.0000 0.00000  0.57341  0.50000  Biso   1.000  C
  C15      1.0000 0.57341  0.00000  0.50000  Biso   1.000  C
  C16      1.0000 0.42659  0.00000  0.50000  Biso   1.000  C
  C17      1.0000 0.96334  0.56422  0.00000  Biso   1.000  C
  C18      1.0000 0.03666  0.43578  0.00000  Biso   1.000  C
  C19      1.0000 0.56422  0.03666  0.00000  Biso   1.000  C
  C20      1.0000 0.43578  0.96334  0.00000  Biso   1.000  C
  C21      1.0000 0.56422  0.96334  0.00000  Biso   1.000  C
  C22      1.0000 0.43578  0.03666  0.00000  Biso   1.000  C
  C23      1.0000 0.96334  0.43578  0.00000  Biso   1.000  C
  C24      1.0000 0.03666  0.56422  0.00000  Biso   1.000  C
  C25      1.0000 0.53666  0.06422  0.50000  Biso   1.000  C
  C26      1.0000 0.46334  0.93578  0.50000  Biso   1.000  C
  C27      1.0000 0.93578  0.53666  0.50000  Biso   1.000  C
  C28      1.0000 0.06422  0.46334  0.50000  Biso   1.000  C
  C29      1.0000 0.93578  0.46334  0.50000  Biso   1.000  C
  C30      1.0000 0.06422  0.53666  0.50000  Biso   1.000  C
  C31      1.0000 0.53666  0.93578  0.50000  Biso   1.000  C
  C32      1.0000 0.46334  0.06422  0.50000  Biso   1.000  C
  C33      1.0000 0.22554  0.22554  0.31821  Biso   1.000  C
  C34      1.0000 0.77446  0.77446  0.68179  Biso   1.000  C
  C35      1.0000 0.22554  0.22554  0.68179  Biso   1.000  C
  C36      1.0000 0.77446  0.77446  0.31821  Biso   1.000  C
  C37      1.0000 0.22554  0.77446  0.31821  Biso   1.000  C
  C38      1.0000 0.77446  0.22554  0.68179  Biso   1.000  C
  C39      1.0000 0.22554  0.77446  0.68179  Biso   1.000  C
  C40      1.0000 0.77446  0.22554  0.31821  Biso   1.000  C
  C41      1.0000 0.27446  0.72554  0.81821  Biso   1.000  C
  C42      1.0000 0.72554  0.27446  0.18179  Biso   1.000  C
  C43      1.0000 0.27446  0.72554  0.18179  Biso   1.000  C
  C44      1.0000 0.72554  0.27446  0.81821  Biso   1.000  C
  C45      1.0000 0.27446  0.27446  0.81821  Biso   1.000  C
  C46      1.0000 0.72554  0.72554  0.18179  Biso   1.000  C
  C47      1.0000 0.27446  0.27446  0.18179  Biso   1.000  C
  C48      1.0000 0.72554  0.72554  0.81821  Biso   1.000  C
  C49      1.0000 0.69867  0.69867  0.89056  Biso   1.000  C
  C50      1.0000 0.30133  0.30133  0.10944  Biso   1.000  C
  C51      1.0000 0.69867  0.69867  0.10944  Biso   1.000  C
  C52      1.0000 0.30133  0.30133  0.89056  Biso   1.000  C
  C53      1.0000 0.69867  0.30133  0.89056  Biso   1.000  C
  C54      1.0000 0.30133  0.69867  0.10944  Biso   1.000  C
  C55      1.0000 0.69867  0.30133  0.10944  Biso   1.000  C
  C56      1.0000 0.30133  0.69867  0.89056  Biso   1.000  C
  C57      1.0000 0.80133  0.19867  0.39056  Biso   1.000  C
  C58      1.0000 0.19867  0.80133  0.60944  Biso   1.000  C
  C59      1.0000 0.80133  0.19867  0.60944  Biso   1.000  C
  C60      1.0000 0.19867  0.80133  0.39056  Biso   1.000  C
  C61      1.0000 0.80133  0.80133  0.39056  Biso   1.000  C
  C62      1.0000 0.19867  0.19867  0.60944  Biso   1.000  C
  C63      1.0000 0.80133  0.80133  0.60944  Biso   1.000  C
  C64      1.0000 0.19867  0.19867  0.39056  Biso   1.000  C
  C65      1.0000 0.19239  0.28317  0.28406  Biso   1.000  C
  C66      1.0000 0.80761  0.71683  0.71595  Biso   1.000  C
  C67      1.0000 0.19239  0.28317  0.71595  Biso   1.000  C
  C68      1.0000 0.80761  0.71683  0.28406  Biso   1.000  C
  C69      1.0000 0.28317  0.80761  0.28406  Biso   1.000  C
  C70      1.0000 0.71683  0.19239  0.71595  Biso   1.000  C
  C71      1.0000 0.28317  0.80761  0.71595  Biso   1.000  C
  C72      1.0000 0.71683  0.19239  0.28406  Biso   1.000  C
  C73      1.0000 0.28317  0.19239  0.71595  Biso   1.000  C
  C74      1.0000 0.71683  0.80761  0.28406  Biso   1.000  C
  C75      1.0000 0.28317  0.19239  0.28406  Biso   1.000  C
  C76      1.0000 0.71683  0.80761  0.71595  Biso   1.000  C
  C77      1.0000 0.19239  0.71683  0.71595  Biso   1.000  C
  C78      1.0000 0.80761  0.28317  0.28406  Biso   1.000  C
  C79      1.0000 0.19239  0.71683  0.28406  Biso   1.000  C
  C80      1.0000 0.80761  0.28317  0.71595  Biso   1.000  C
  C81      1.0000 0.30762  0.78317  0.21594  Biso   1.000  C
  C82      1.0000 0.69239  0.21683  0.78405  Biso   1.000  C
  C83      1.0000 0.30762  0.78317  0.78405  Biso   1.000  C
  C84      1.0000 0.69239  0.21683  0.21594  Biso   1.000  C
  C85      1.0000 0.21683  0.30762  0.21594  Biso   1.000  C
  C86      1.0000 0.78317  0.69239  0.78405  Biso   1.000  C
  C87      1.0000 0.21683  0.30762  0.78405  Biso   1.000  C
  C88      1.0000 0.78317  0.69239  0.21594  Biso   1.000  C
  C89      1.0000 0.21683  0.69239  0.78405  Biso   1.000  C
  C90      1.0000 0.78317  0.30762  0.21594  Biso   1.000  C
  C91      1.0000 0.21683  0.69239  0.21594  Biso   1.000  C
  C92      1.0000 0.78317  0.30762  0.78405  Biso   1.000  C
  C93      1.0000 0.30762  0.21683  0.78405  Biso   1.000  C
  C94      1.0000 0.69239  0.78317  0.21594  Biso   1.000  C
  C95      1.0000 0.30762  0.21683  0.21594  Biso   1.000  C
  C96      1.0000 0.69239  0.78317  0.78405  Biso   1.000  C
  H1       1.0000 0.85265  0.69217  0.68800  Biso   1.000  H
  H2       1.0000 0.14735  0.30783  0.68800  Biso   1.000  H
  H3       1.0000 0.69217  0.14735  0.68800  Biso   1.000  H
  H4       1.0000 0.30783  0.85265  0.31200  Biso   1.000  H
  H5       1.0000 0.14735  0.69217  0.68800  Biso   1.000  H
  H6       1.0000 0.85265  0.30783  0.31200  Biso   1.000  H
  H7       1.0000 0.30783  0.14735  0.31200  Biso   1.000  H
  H8       1.0000 0.69217  0.85265  0.31200  Biso   1.000  H
  H9       1.0000 0.80783  0.35265  0.81200  Biso   1.000  H
  H10      1.0000 0.19217  0.64735  0.18800  Biso   1.000  H
  H11      1.0000 0.35265  0.19217  0.81200  Biso   1.000  H
  H12      1.0000 0.64735  0.80783  0.81200  Biso   1.000  H
  H13      1.0000 0.80783  0.64735  0.18800  Biso   1.000  H
  H14      1.0000 0.19217  0.35265  0.18800  Biso   1.000  H
  H15      1.0000 0.35265  0.80783  0.81200  Biso   1.000  H
  H16      1.0000 0.64735  0.19217  0.18800  Biso   1.000  H
  H17      1.0000 0.42608  0.57391  0.00000  Biso   1.000  H
  H18      1.0000 0.57391  0.42608  0.00000  Biso   1.000  H
  H19      1.0000 0.42608  0.42608  0.00000  Biso   1.000  H
  H20      1.0000 0.57391  0.57391  0.00000  Biso   1.000  H
  H21      1.0000 0.92609  0.07391  0.50000  Biso   1.000  H
  H22      1.0000 0.07391  0.92609  0.50000  Biso   1.000  H
  H23      1.0000 0.92609  0.92609  0.50000  Biso   1.000  H
  H24      1.0000 0.07391  0.07391  0.50000  Biso   1.000  H
  H25      1.0000 0.06673  0.38642  0.00000  Biso   1.000  H
  H26      1.0000 0.93327  0.61358  0.00000  Biso   1.000  H
  H27      1.0000 0.38642  0.93327  0.00000  Biso   1.000  H
  H28      1.0000 0.61358  0.06673  0.00000  Biso   1.000  H
  H29      1.0000 0.11358  0.56673  0.50000  Biso   1.000  H
  H30      1.0000 0.88642  0.43327  0.50000  Biso   1.000  H
  H31      1.0000 0.43327  0.11358  0.50000  Biso   1.000  H
  H32      1.0000 0.56673  0.88642  0.50000  Biso   1.000  H
  O1       1.0000 0.31661  0.05951  0.50000  Biso   1.000  O
  O2       1.0000 0.68339  0.94049  0.50000  Biso   1.000  O
  O3       1.0000 0.05951  0.68339  0.50000  Biso   1.000  O
  O4       1.0000 0.94049  0.31661  0.50000  Biso   1.000  O
  O5       1.0000 0.05951  0.31661  0.50000  Biso   1.000  O
  O6       1.0000 0.94049  0.68339  0.50000  Biso   1.000  O
  O7       1.0000 0.31661  0.94049  0.50000  Biso   1.000  O
  O8       1.0000 0.68339  0.05951  0.50000  Biso   1.000  O
  O9       1.0000 0.18339  0.55951  0.00000  Biso   1.000  O
  O10      1.0000 0.81661  0.44049  0.00000  Biso   1.000  O
  O11      1.0000 0.44049  0.18339  0.00000  Biso   1.000  O
  O12      1.0000 0.55951  0.81661  0.00000  Biso   1.000  O
  O13      1.0000 0.44049  0.81661  0.00000  Biso   1.000  O
  O14      1.0000 0.55951  0.18339  0.00000  Biso   1.000  O
  O15      1.0000 0.18339  0.44049  0.00000  Biso   1.000  O
  O16      1.0000 0.81661  0.55951  0.00000  Biso   1.000  O
  O17      1.0000 0.30118  0.50000  0.06892  Biso   1.000  O
  O18      1.0000 0.69882  0.50000  0.06892  Biso   1.000  O
  O19      1.0000 0.50000  0.69882  0.06892  Biso   1.000  O
  O20      1.0000 0.50000  0.30118  0.06892  Biso   1.000  O
  O21      1.0000 0.00000  0.19882  0.43108  Biso   1.000  O
  O22      1.0000 0.00000  0.80118  0.56892  Biso   1.000  O
  O23      1.0000 0.00000  0.19882  0.56892  Biso   1.000  O
  O24      1.0000 0.00000  0.80118  0.43108  Biso   1.000  O
  O25      1.0000 0.80118  0.00000  0.43108  Biso   1.000  O
  O26      1.0000 0.19882  0.00000  0.56892  Biso   1.000  O
  O27      1.0000 0.80118  0.00000  0.56892  Biso   1.000  O
  O28      1.0000 0.19882  0.00000  0.43108  Biso   1.000  O
  O29      1.0000 0.22982  0.14588  0.41948  Biso   1.000  O
  O30      1.0000 0.77018  0.85412  0.58052  Biso   1.000  O
  O31      1.0000 0.22982  0.14588  0.58052  Biso   1.000  O
  O32      1.0000 0.77018  0.85412  0.41948  Biso   1.000  O
  O33      1.0000 0.14588  0.77018  0.41948  Biso   1.000  O
  O34      1.0000 0.85412  0.22982  0.58052  Biso   1.000  O
  O35      1.0000 0.14588  0.77018  0.58052  Biso   1.000  O
  O36      1.0000 0.85412  0.22982  0.41948  Biso   1.000  O
  O37      1.0000 0.14588  0.22982  0.58052  Biso   1.000  O
  O38      1.0000 0.85412  0.77018  0.41948  Biso   1.000  O
  O39      1.0000 0.14588  0.22982  0.41948  Biso   1.000  O
  O40      1.0000 0.85412  0.77018  0.58052  Biso   1.000  O
  O41      1.0000 0.22982  0.85412  0.58052  Biso   1.000  O
  O42      1.0000 0.77018  0.14588  0.41948  Biso   1.000  O
  O43      1.0000 0.22982  0.85412  0.41948  Biso   1.000  O
  O44      1.0000 0.77018  0.14588  0.58052  Biso   1.000  O
  O45      1.0000 0.27018  0.64588  0.08052  Biso   1.000  O
  O46      1.0000 0.72982  0.35412  0.91948  Biso   1.000  O
  O47      1.0000 0.27018  0.64588  0.91948  Biso   1.000  O
  O48      1.0000 0.72982  0.35412  0.08052  Biso   1.000  O
  O49      1.0000 0.35412  0.27018  0.08052  Biso   1.000  O
  O50      1.0000 0.64588  0.72982  0.91948  Biso   1.000  O
  O51      1.0000 0.35412  0.27018  0.91948  Biso   1.000  O
  O52      1.0000 0.64588  0.72982  0.08052  Biso   1.000  O
  O53      1.0000 0.35412  0.72982  0.91948  Biso   1.000  O
  O54      1.0000 0.64588  0.27018  0.08052  Biso   1.000  O
  O55      1.0000 0.35412  0.72982  0.08052  Biso   1.000  O
  O56      1.0000 0.64588  0.27018  0.91948  Biso   1.000  O
  O57      1.0000 0.27018  0.35412  0.91948  Biso   1.000  O
  O58      1.0000 0.72982  0.64588  0.08052  Biso   1.000  O
  O59      1.0000 0.27018  0.35412  0.08052  Biso   1.000  O
  O60      1.0000 0.72982  0.64588  0.91948  Biso   1.000  O
  O61      1.0000 0.11025  0.11025  0.50000  Biso   1.000  O
  O62      1.0000 0.88975  0.88975  0.50000  Biso   1.000  O
  O63      1.0000 0.11025  0.88975  0.50000  Biso   1.000  O
  O64      1.0000 0.88975  0.11025  0.50000  Biso   1.000  O
  O65      1.0000 0.38975  0.61025  0.00000  Biso   1.000  O
  O66      1.0000 0.61025  0.38975  0.00000  Biso   1.000  O
  O67      1.0000 0.38975  0.38975  0.00000  Biso   1.000  O
  O68      1.0000 0.61025  0.61025  0.00000  Biso   1.000  O
  Ti1      1.0000 0.78985  0.07230  0.50000  Biso   1.000  Ti
  Ti2      1.0000 0.21015  0.92770  0.50000  Biso   1.000  Ti
  Ti3      1.0000 0.92770  0.78985  0.50000  Biso   1.000  Ti
  Ti4      1.0000 0.07230  0.21015  0.50000  Biso   1.000  Ti
  Ti5      1.0000 0.92770  0.21015  0.50000  Biso   1.000  Ti
  Ti6      1.0000 0.07230  0.78985  0.50000  Biso   1.000  Ti
  Ti7      1.0000 0.78985  0.92770  0.50000  Biso   1.000  Ti
  Ti8      1.0000 0.21015  0.07230  0.50000  Biso   1.000  Ti
  Ti9      1.0000 0.28985  0.57230  0.00000  Biso   1.000  Ti
  Ti10     1.0000 0.71015  0.42770  0.00000  Biso   1.000  Ti
  Ti11     1.0000 0.42770  0.28985  0.00000  Biso   1.000  Ti
  Ti12     1.0000 0.57230  0.71015  0.00000  Biso   1.000  Ti
  Ti13     1.0000 0.42770  0.71015  0.00000  Biso   1.000  Ti
  Ti14     1.0000 0.57230  0.28985  0.00000  Biso   1.000  Ti
  Ti15     1.0000 0.28985  0.42770  0.00000  Biso   1.000  Ti
  Ti16     1.0000 0.71015  0.57230  0.00000  Biso   1.000  Ti
  S1       1.0000 0.11826  0.32541  0.32838  Biso   1.000  S
  S2       1.0000 0.38173  0.17459  0.17162  Biso   1.000  S
  H33      1.0000 0.13900  0.35162  0.39794  Biso   1.000  H
  H34      1.0000 0.43628  0.22374  0.16212  Biso   1.000  H
  S3       1.0000 0.41562  0.85350  0.50000  Biso   1.000  S
  S4       1.0000 0.58439  0.14650  0.50000  Biso   1.000  S
  H35      1.0000 0.37307  0.84966  0.43634  Biso   1.000  H
  S5       1.0000 0.82541  0.61826  0.82838  Biso   1.000  S
  S6       1.0000 0.67459  0.88174  0.67162  Biso   1.000  S
  H36      1.0000 0.77626  0.56371  0.83788  Biso   1.000  H
  H37      1.0000 0.64838  0.86099  0.60206  Biso   1.000  H
  S7       1.0000 0.11826  0.67459  0.32838  Biso   1.000  S
  S8       1.0000 0.38173  0.82541  0.17162  Biso   1.000  S
  H38      1.0000 0.36100  0.85162  0.10206  Biso   1.000  H
  H39      1.0000 0.06371  0.72374  0.33788  Biso   1.000  H
  S9       1.0000 0.67459  0.11826  0.32838  Biso   1.000  S
  S10      1.0000 0.82541  0.38173  0.17162  Biso   1.000  S
  H40      1.0000 0.64838  0.13900  0.39794  Biso   1.000  H
  H41      1.0000 0.77626  0.43628  0.16212  Biso   1.000  H
  S11      1.0000 0.88174  0.67459  0.32838  Biso   1.000  S
  S12      1.0000 0.61826  0.82541  0.17162  Biso   1.000  S
  H42      1.0000 0.86099  0.64838  0.39794  Biso   1.000  H
  H43      1.0000 0.56371  0.77626  0.16212  Biso   1.000  H
  S13      1.0000 0.17459  0.61826  0.82838  Biso   1.000  S
  S14      1.0000 0.32541  0.88174  0.67162  Biso   1.000  S
  H44      1.0000 0.27626  0.93628  0.66212  Biso   1.000  H
  H45      1.0000 0.14838  0.63901  0.89794  Biso   1.000  H
  S15      1.0000 0.17459  0.38173  0.82838  Biso   1.000  S
  S16      1.0000 0.32541  0.11826  0.67162  Biso   1.000  S
  H46      1.0000 0.35162  0.13900  0.60206  Biso   1.000  H
  H47      1.0000 0.22374  0.43628  0.83788  Biso   1.000  H
  S17      1.0000 0.35350  0.08439  0.00000  Biso   1.000  S
  S18      1.0000 0.64650  0.91561  0.00000  Biso   1.000  S
  H48      1.0000 0.34966  0.12693  0.93634  Biso   1.000  H
  H49      1.0000 0.65034  0.87308  0.93634  Biso   1.000  H
  S19      1.0000 0.88174  0.32541  0.67162  Biso   1.000  S
  S20      1.0000 0.61826  0.17459  0.82838  Biso   1.000  S
  H50      1.0000 0.56371  0.22374  0.83788  Biso   1.000  H
  H51      1.0000 0.86099  0.35162  0.60206  Biso   1.000  H
  S21      1.0000 0.85350  0.58439  0.50000  Biso   1.000  S
  S22      1.0000 0.14650  0.41562  0.50000  Biso   1.000  S
  H52      1.0000 0.84966  0.62692  0.43634  Biso   1.000  H
  H53      1.0000 0.15034  0.37307  0.43634  Biso   1.000  H
  S23      1.0000 0.08439  0.64650  0.00000  Biso   1.000  S
  S24      1.0000 0.91561  0.35350  0.00000  Biso   1.000  S
  H54      1.0000 0.87308  0.34966  0.93634  Biso   1.000  H
  H55      1.0000 0.12693  0.65034  0.93634  Biso   1.000  H
  O69      1.0000 0.69882  0.50000  0.93108  Biso   1.000  O
  O70      1.0000 0.30118  0.50000  0.93108  Biso   1.000  O
  O71      1.0000 0.50000  0.30118  0.93108  Biso   1.000  O
  O72      1.0000 0.50000  0.69882  0.93108  Biso   1.000  O
  H56      1.0000 0.62693  0.15033  0.56366  Biso   1.000  H
