# generated using pymatgen
data_NiH8C7SNO3
_symmetry_space_group_name_H-M   'P 1'
_cell_length_a   7.19785000
_cell_length_b   27.11518622
_cell_length_c   27.20850000
_cell_angle_alpha   60.31723670
_cell_angle_beta   89.92310000
_cell_angle_gamma   89.83768322
_symmetry_Int_Tables_number   1
_chemical_formula_structural   NiH8C7SNO3
_chemical_formula_sum   'Ni18 H144 C126 S18 N18 O54'
_cell_volume   4613.47655164
_cell_formula_units_Z   18
loop_
 _symmetry_equiv_pos_site_id
 _symmetry_equiv_pos_as_xyz
  1  'x, y, z'
loop_
 _atom_site_type_symbol
 _atom_site_label
 _atom_site_symmetry_multiplicity
 _atom_site_fract_x
 _atom_site_fract_y
 _atom_site_fract_z
 _atom_site_occupancy
  Ni  Ni0  1  0.38407000  0.96937000  0.64671000  1.0
  Ni  Ni1  1  0.39225000  0.64408000  0.38424000  1.0
  Ni  Ni2  1  0.38493000  0.38210000  0.97385000  1.0
  Ni  Ni3  1  0.05897000  0.63592000  0.31460000  1.0
  Ni  Ni4  1  0.05156000  0.31093000  0.04837000  1.0
  Ni  Ni5  1  0.05090000  0.04805000  0.64030000  1.0
  Ni  Ni6  1  0.71732000  0.30419000  0.97907000  1.0
  Ni  Ni7  1  0.71759000  0.97707000  0.71737000  1.0
  Ni  Ni8  1  0.72596000  0.71491000  0.30757000  1.0
  Ni  Ni9  1  0.60827000  0.03037000  0.35438000  1.0
  Ni  Ni10  1  0.61640000  0.35429000  0.61796000  1.0
  Ni  Ni11  1  0.61810000  0.61596000  0.02981000  1.0
  Ni  Ni12  1  0.28419000  0.69483000  0.02251000  1.0
  Ni  Ni13  1  0.27824000  0.02122000  0.28379000  1.0
  Ni  Ni14  1  0.28282000  0.28282000  0.69570000  1.0
  Ni  Ni15  1  0.94908000  0.36118000  0.68932000  1.0
  Ni  Ni16  1  0.95072000  0.68763000  0.95113000  1.0
  Ni  Ni17  1  0.94199000  0.95125000  0.36121000  1.0
  H  H18  1  0.65651000  0.81224000  0.81930000  1.0
  H  H19  1  0.65502000  0.81885000  0.36888000  1.0
  H  H20  1  0.65373000  0.36714000  0.81533000  1.0
  H  H21  1  0.32503000  0.47823000  0.48756000  1.0
  H  H22  1  0.32535000  0.48368000  0.03576000  1.0
  H  H23  1  0.31786000  0.03406000  0.48132000  1.0
  H  H24  1  0.98348000  0.14653000  0.15213000  1.0
  H  H25  1  0.98822000  0.15060000  0.70121000  1.0
  H  H26  1  0.99330000  0.69904000  0.14962000  1.0
  H  H27  1  0.34024000  0.18651000  0.18039000  1.0
  H  H28  1  0.34500000  0.18069000  0.63374000  1.0
  H  H29  1  0.35031000  0.63201000  0.18738000  1.0
  H  H30  1  0.01423000  0.85124000  0.84924000  1.0
  H  H31  1  0.01345000  0.84650000  0.30035000  1.0
  H  H32  1  0.01203000  0.29891000  0.85330000  1.0
  H  H33  1  0.68228000  0.51858000  0.51582000  1.0
  H  H34  1  0.68374000  0.51387000  0.96709000  1.0
  H  H35  1  0.67498000  0.96691000  0.51907000  1.0
  H  H36  1  0.45647000  0.89507000  0.86401000  1.0
  H  H37  1  0.46379000  0.86183000  0.24169000  1.0
  H  H38  1  0.45140000  0.23958000  0.89567000  1.0
  H  H39  1  0.11534000  0.56349000  0.53072000  1.0
  H  H40  1  0.12396000  0.53016000  0.90828000  1.0
  H  H41  1  0.12026000  0.90639000  0.56372000  1.0
  H  H42  1  0.78992000  0.23063000  0.19397000  1.0
  H  H43  1  0.79027000  0.19553000  0.57402000  1.0
  H  H44  1  0.78646000  0.57193000  0.23326000  1.0
  H  H45  1  0.54380000  0.10209000  0.13754000  1.0
  H  H46  1  0.55117000  0.13585000  0.76044000  1.0
  H  H47  1  0.54178000  0.75954000  0.10537000  1.0
  H  H48  1  0.20923000  0.76872000  0.80409000  1.0
  H  H49  1  0.20134000  0.80363000  0.42689000  1.0
  H  H50  1  0.20735000  0.42663000  0.77164000  1.0
  H  H51  1  0.87523000  0.43582000  0.47079000  1.0
  H  H52  1  0.87573000  0.46874000  0.09439000  1.0
  H  H53  1  0.87432000  0.09452000  0.43644000  1.0
  H  H54  1  0.89484000  0.96261000  0.90064000  1.0
  H  H55  1  0.90277000  0.89717000  0.13840000  1.0
  H  H56  1  0.89596000  0.13775000  0.96194000  1.0
  H  H57  1  0.55763000  0.63035000  0.56628000  1.0
  H  H58  1  0.56568000  0.56472000  0.80574000  1.0
  H  H59  1  0.56518000  0.80410000  0.62649000  1.0
  H  H60  1  0.22717000  0.29663000  0.23234000  1.0
  H  H61  1  0.23438000  0.22972000  0.47262000  1.0
  H  H62  1  0.23203000  0.47014000  0.29567000  1.0
  H  H63  1  0.10038000  0.03553000  0.10191000  1.0
  H  H64  1  0.10809000  0.10131000  0.86223000  1.0
  H  H65  1  0.09617000  0.86106000  0.03939000  1.0
  H  H66  1  0.76940000  0.69955000  0.77013000  1.0
  H  H67  1  0.76109000  0.76930000  0.52969000  1.0
  H  H68  1  0.76244000  0.52866000  0.70485000  1.0
  H  H69  1  0.44246000  0.36493000  0.43597000  1.0
  H  H70  1  0.43463000  0.43383000  0.19720000  1.0
  H  H71  1  0.42958000  0.19658000  0.37105000  1.0
  H  H72  1  0.86943000  0.98126000  0.82767000  1.0
  H  H73  1  0.87907000  0.82445000  0.19338000  1.0
  H  H74  1  0.86146000  0.19017000  0.98334000  1.0
  H  H75  1  0.52872000  0.64970000  0.49323000  1.0
  H  H76  1  0.53633000  0.49163000  0.85932000  1.0
  H  H77  1  0.53856000  0.85733000  0.64713000  1.0
  H  H78  1  0.21062000  0.31316000  0.15980000  1.0
  H  H79  1  0.20531000  0.15674000  0.52645000  1.0
  H  H80  1  0.20488000  0.52304000  0.31676000  1.0
  H  H81  1  0.13056000  0.01651000  0.17483000  1.0
  H  H82  1  0.13828000  0.17451000  0.80909000  1.0
  H  H83  1  0.12972000  0.80789000  0.01895000  1.0
  H  H84  1  0.79675000  0.68237000  0.84262000  1.0
  H  H85  1  0.78768000  0.84210000  0.47514000  1.0
  H  H86  1  0.79617000  0.47532000  0.68466000  1.0
  H  H87  1  0.46692000  0.34786000  0.50849000  1.0
  H  H88  1  0.46375000  0.50687000  0.14346000  1.0
  H  H89  1  0.46202000  0.14382000  0.35001000  1.0
  H  H90  1  0.00296000  0.92033000  0.87504000  1.0
  H  H91  1  0.01114000  0.87332000  0.20542000  1.0
  H  H92  1  0.99943000  0.20623000  0.92257000  1.0
  H  H93  1  0.66322000  0.58866000  0.53961000  1.0
  H  H94  1  0.67110000  0.53846000  0.87353000  1.0
  H  H95  1  0.66957000  0.87217000  0.58539000  1.0
  H  H96  1  0.33711000  0.25185000  0.21014000  1.0
  H  H97  1  0.33847000  0.20395000  0.54053000  1.0
  H  H98  1  0.33617000  0.53838000  0.25496000  1.0
  H  H99  1  0.99584000  0.07750000  0.12839000  1.0
  H  H100  1  0.00317000  0.12823000  0.79425000  1.0
  H  H101  1  0.99335000  0.79257000  0.07981000  1.0
  H  H102  1  0.66220000  0.74278000  0.79470000  1.0
  H  H103  1  0.65411000  0.79411000  0.46231000  1.0
  H  H104  1  0.65973000  0.46020000  0.74545000  1.0
  H  H105  1  0.33056000  0.40772000  0.46032000  1.0
  H  H106  1  0.32841000  0.45999000  0.12949000  1.0
  H  H107  1  0.32607000  0.12816000  0.41102000  1.0
  H  H108  1  0.81096000  0.83063000  0.94604000  1.0
  H  H109  1  0.57344000  0.94544000  0.21330000  1.0
  H  H110  1  0.81274000  0.22377000  0.83166000  1.0
  H  H111  1  0.47259000  0.49882000  0.61143000  1.0
  H  H112  1  0.23761000  0.61298000  0.88053000  1.0
  H  H113  1  0.47398000  0.89207000  0.49595000  1.0
  H  H114  1  0.13566000  0.16442000  0.27960000  1.0
  H  H115  1  0.90319000  0.27844000  0.54625000  1.0
  H  H116  1  0.13974000  0.55803000  0.16530000  1.0
  H  H117  1  0.18497000  0.16648000  0.05535000  1.0
  H  H118  1  0.19286000  0.05483000  0.77711000  1.0
  H  H119  1  0.42631000  0.78672000  0.16086000  1.0
  H  H120  1  0.09786000  0.82208000  0.72097000  1.0
  H  H121  1  0.09109000  0.72036000  0.45590000  1.0
  H  H122  1  0.09155000  0.45443000  0.82668000  1.0
  H  H123  1  0.76391000  0.48893000  0.38717000  1.0
  H  H124  1  0.76166000  0.38573000  0.12171000  1.0
  H  H125  1  0.75858000  0.12060000  0.49269000  1.0
  H  H126  1  0.56621000  0.84060000  0.94713000  1.0
  H  H127  1  0.72200000  0.97188000  0.15313000  1.0
  H  H128  1  0.56831000  0.21228000  0.84059000  1.0
  H  H129  1  0.22827000  0.50876000  0.61330000  1.0
  H  H130  1  0.38628000  0.63918000  0.82044000  1.0
  H  H131  1  0.22995000  0.88032000  0.50652000  1.0
  H  H132  1  0.89143000  0.17627000  0.27807000  1.0
  H  H133  1  0.05554000  0.30437000  0.48698000  1.0
  H  H134  1  0.89592000  0.54592000  0.17628000  1.0
  H  H135  1  0.43023000  0.15755000  0.05471000  1.0
  H  H136  1  0.43751000  0.05307000  0.78809000  1.0
  H  H137  1  0.27391000  0.84633000  0.12812000  1.0
  H  H138  1  0.94280000  0.78893000  0.69522000  1.0
  H  H139  1  0.93981000  0.69443000  0.51544000  1.0
  H  H140  1  0.94011000  0.51423000  0.79354000  1.0
  H  H141  1  0.60800000  0.45603000  0.36134000  1.0
  H  H142  1  0.61305000  0.35929000  0.18191000  1.0
  H  H143  1  0.60671000  0.18039000  0.46060000  1.0
  H  H144  1  0.71916000  0.87306000  0.97405000  1.0
  H  H145  1  0.81876000  0.94561000  0.22225000  1.0
  H  H146  1  0.72336000  0.15335000  0.87290000  1.0
  H  H147  1  0.38319000  0.54123000  0.63976000  1.0
  H  H148  1  0.48303000  0.61207000  0.88969000  1.0
  H  H149  1  0.38574000  0.82151000  0.53670000  1.0
  H  H150  1  0.04308000  0.20858000  0.30552000  1.0
  H  H151  1  0.14799000  0.27722000  0.55672000  1.0
  H  H152  1  0.05266000  0.48732000  0.20635000  1.0
  H  H153  1  0.28089000  0.12391000  0.02808000  1.0
  H  H154  1  0.28401000  0.02707000  0.84708000  1.0
  H  H155  1  0.18141000  0.77633000  0.16974000  1.0
  H  H156  1  0.85337000  0.83223000  0.72252000  1.0
  H  H157  1  0.84639000  0.72079000  0.44587000  1.0
  H  H158  1  0.84644000  0.44441000  0.83513000  1.0
  H  H159  1  0.51960000  0.49859000  0.38963000  1.0
  H  H160  1  0.51622000  0.38669000  0.11261000  1.0
  H  H161  1  0.51367000  0.11035000  0.50128000  1.0
  C  C162  1  0.42080000  0.86610000  0.78030000  1.0
  C  C163  1  0.42229000  0.77868000  0.35421000  1.0
  C  C164  1  0.41838000  0.35233000  0.86928000  1.0
  C  C165  1  0.09112000  0.53284000  0.44798000  1.0
  C  C166  1  0.08953000  0.44448000  0.02116000  1.0
  C  C167  1  0.08379000  0.01864000  0.53580000  1.0
  C  C168  1  0.74867000  0.20064000  0.11228000  1.0
  C  C169  1  0.75196000  0.11142000  0.68688000  1.0
  C  C170  1  0.75848000  0.68436000  0.20366000  1.0
  C  C171  1  0.57523000  0.13244000  0.22014000  1.0
  C  C172  1  0.58160000  0.22001000  0.64787000  1.0
  C  C173  1  0.58498000  0.64681000  0.13324000  1.0
  C  C174  1  0.25014000  0.79742000  0.88839000  1.0
  C  C175  1  0.24626000  0.88681000  0.31489000  1.0
  C  C176  1  0.24751000  0.31373000  0.79942000  1.0
  C  C177  1  0.91649000  0.46412000  0.55550000  1.0
  C  C178  1  0.91845000  0.55295000  0.98234000  1.0
  C  C179  1  0.90963000  0.98186000  0.46488000  1.0
  C  C180  1  0.51295000  0.82046000  0.82557000  1.0
  C  C181  1  0.51170000  0.82450000  0.35448000  1.0
  C  C182  1  0.51025000  0.35286000  0.82342000  1.0
  C  C183  1  0.18151000  0.48694000  0.49335000  1.0
  C  C184  1  0.18170000  0.48989000  0.02156000  1.0
  C  C185  1  0.17431000  0.01985000  0.48943000  1.0
  C  C186  1  0.83976000  0.15507000  0.15789000  1.0
  C  C187  1  0.84464000  0.15693000  0.68691000  1.0
  C  C188  1  0.84955000  0.68500000  0.15765000  1.0
  C  C189  1  0.48396000  0.17797000  0.17458000  1.0
  C  C190  1  0.48891000  0.17452000  0.64776000  1.0
  C  C191  1  0.49392000  0.64617000  0.17926000  1.0
  C  C192  1  0.15781000  0.84294000  0.84307000  1.0
  C  C193  1  0.15682000  0.84094000  0.31471000  1.0
  C  C194  1  0.15549000  0.31324000  0.84525000  1.0
  C  C195  1  0.82589000  0.50992000  0.51008000  1.0
  C  C196  1  0.82690000  0.50758000  0.98171000  1.0
  C  C197  1  0.81879000  0.98091000  0.51108000  1.0
  C  C198  1  0.23566000  0.87777000  0.78955000  1.0
  C  C199  1  0.23759000  0.78743000  0.33353000  1.0
  C  C200  1  0.23350000  0.33159000  0.88064000  1.0
  C  C201  1  0.90582000  0.54467000  0.45688000  1.0
  C  C202  1  0.90485000  0.45377000  0.00038000  1.0
  C  C203  1  0.89845000  0.99835000  0.54694000  1.0
  C  C204  1  0.56320000  0.21240000  0.12117000  1.0
  C  C205  1  0.56669000  0.12067000  0.66643000  1.0
  C  C206  1  0.57315000  0.66399000  0.21487000  1.0
  C  C207  1  0.76061000  0.12059000  0.21127000  1.0
  C  C208  1  0.76697000  0.21075000  0.66833000  1.0
  C  C209  1  0.77044000  0.66711000  0.12206000  1.0
  C  C210  1  0.43536000  0.78576000  0.87921000  1.0
  C  C211  1  0.43110000  0.87805000  0.33564000  1.0
  C  C212  1  0.43245000  0.33443000  0.78812000  1.0
  C  C213  1  0.10165000  0.45230000  0.54662000  1.0
  C  C214  1  0.10352000  0.54367000  0.00310000  1.0
  C  C215  1  0.09501000  0.00226000  0.45363000  1.0
  C  C216  1  0.10889000  0.92450000  0.74803000  1.0
  C  C217  1  0.11394000  0.74493000  0.32920000  1.0
  C  C218  1  0.10720000  0.32633000  0.92746000  1.0
  C  C219  1  0.78093000  0.59165000  0.41529000  1.0
  C  C220  1  0.77812000  0.41191000  0.99570000  1.0
  C  C221  1  0.77353000  0.99274000  0.59413000  1.0
  C  C222  1  0.43808000  0.25892000  0.07906000  1.0
  C  C223  1  0.44001000  0.07861000  0.66209000  1.0
  C  C224  1  0.44836000  0.65816000  0.26216000  1.0
  C  C225  1  0.88601000  0.07385000  0.25324000  1.0
  C  C226  1  0.89377000  0.25241000  0.67347000  1.0
  C  C227  1  0.89684000  0.67226000  0.07527000  1.0
  C  C228  1  0.56292000  0.73962000  0.92110000  1.0
  C  C229  1  0.55576000  0.92040000  0.34002000  1.0
  C  C230  1  0.55887000  0.33943000  0.74140000  1.0
  C  C231  1  0.22676000  0.40573000  0.58864000  1.0
  C  C232  1  0.23031000  0.58555000  0.00786000  1.0
  C  C233  1  0.22096000  0.00780000  0.40659000  1.0
  C  C234  1  0.57494000  0.92435000  0.84701000  1.0
  C  C235  1  0.58279000  0.84472000  0.22942000  1.0
  C  C236  1  0.56945000  0.22811000  0.92502000  1.0
  C  C237  1  0.23427000  0.59252000  0.51314000  1.0
  C  C238  1  0.24242000  0.51237000  0.89656000  1.0
  C  C239  1  0.24046000  0.89401000  0.59237000  1.0
  C  C240  1  0.91124000  0.25879000  0.17755000  1.0
  C  C241  1  0.90916000  0.17776000  0.56247000  1.0
  C  C242  1  0.90709000  0.56006000  0.26172000  1.0
  C  C243  1  0.42453000  0.07319000  0.15475000  1.0
  C  C244  1  0.43226000  0.15375000  0.77184000  1.0
  C  C245  1  0.42332000  0.77124000  0.07614000  1.0
  C  C246  1  0.09099000  0.73940000  0.82168000  1.0
  C  C247  1  0.08277000  0.82122000  0.43879000  1.0
  C  C248  1  0.08924000  0.43833000  0.74228000  1.0
  C  C249  1  0.75809000  0.40603000  0.48807000  1.0
  C  C250  1  0.75738000  0.48613000  0.10660000  1.0
  C  C251  1  0.75582000  0.10648000  0.40719000  1.0
  C  C252  1  0.88001000  0.94606000  0.87125000  1.0
  C  C253  1  0.88849000  0.86855000  0.18420000  1.0
  C  C254  1  0.87676000  0.18319000  0.94715000  1.0
  C  C255  1  0.54070000  0.61422000  0.53662000  1.0
  C  C256  1  0.54856000  0.53530000  0.85126000  1.0
  C  C257  1  0.54825000  0.84971000  0.61123000  1.0
  C  C258  1  0.21537000  0.27883000  0.20391000  1.0
  C  C259  1  0.21672000  0.20050000  0.51817000  1.0
  C  C260  1  0.21488000  0.51570000  0.28068000  1.0
  C  C261  1  0.11801000  0.05183000  0.13140000  1.0
  C  C262  1  0.12563000  0.13098000  0.81677000  1.0
  C  C263  1  0.11541000  0.81551000  0.05476000  1.0
  C  C264  1  0.78511000  0.71696000  0.79876000  1.0
  C  C265  1  0.77677000  0.79814000  0.48398000  1.0
  C  C266  1  0.78185000  0.48308000  0.72038000  1.0
  C  C267  1  0.45513000  0.38242000  0.46462000  1.0
  C  C268  1  0.45124000  0.46316000  0.15164000  1.0
  C  C269  1  0.44828000  0.15108000  0.38606000  1.0
  C  C270  1  0.70161000  0.86117000  0.94116000  1.0
  C  C271  1  0.70791000  0.93957000  0.19795000  1.0
  C  C272  1  0.70324000  0.19793000  0.86154000  1.0
  C  C273  1  0.36375000  0.52937000  0.60692000  1.0
  C  C274  1  0.37142000  0.60669000  0.86516000  1.0
  C  C275  1  0.36638000  0.86581000  0.52639000  1.0
  C  C276  1  0.02793000  0.19595000  0.27310000  1.0
  C  C277  1  0.03815000  0.27196000  0.53162000  1.0
  C  C278  1  0.03275000  0.53164000  0.19593000  1.0
  C  C279  1  0.29615000  0.13628000  0.06069000  1.0
  C  C280  1  0.30243000  0.05969000  0.80255000  1.0
  C  C281  1  0.29164000  0.80158000  0.13980000  1.0
  C  C282  1  0.96221000  0.80148000  0.72756000  1.0
  C  C283  1  0.95604000  0.72660000  0.47067000  1.0
  C  C284  1  0.95735000  0.46943000  0.80535000  1.0
  C  C285  1  0.62856000  0.46812000  0.39398000  1.0
  C  C286  1  0.62792000  0.39191000  0.13723000  1.0
  C  C287  1  0.62414000  0.13582000  0.47159000  1.0
  S  S288  1  0.55545000  0.90146000  0.71806000  1.0
  S  S289  1  0.55815000  0.71636000  0.38122000  1.0
  S  S290  1  0.55307000  0.37905000  0.90499000  1.0
  S  S291  1  0.22771000  0.56791000  0.38615000  1.0
  S  S292  1  0.22214000  0.38174000  0.04781000  1.0
  S  S293  1  0.22024000  0.04413000  0.57226000  1.0
  S  S294  1  0.88431000  0.23521000  0.05029000  1.0
  S  S295  1  0.88613000  0.04878000  0.71424000  1.0
  S  S296  1  0.89481000  0.71039000  0.23970000  1.0
  S  S297  1  0.43914000  0.09765000  0.28210000  1.0
  S  S298  1  0.44694000  0.28248000  0.62130000  1.0
  S  S299  1  0.44895000  0.62042000  0.09751000  1.0
  S  S300  1  0.11533000  0.76261000  0.95057000  1.0
  S  S301  1  0.10996000  0.94906000  0.28767000  1.0
  S  S302  1  0.11315000  0.28678000  0.76381000  1.0
  S  S303  1  0.78070000  0.42934000  0.61746000  1.0
  S  S304  1  0.78244000  0.61523000  0.95560000  1.0
  S  S305  1  0.77287000  0.95594000  0.42887000  1.0
  N  N306  1  0.71237000  0.91164000  0.88512000  1.0
  N  N307  1  0.72036000  0.88285000  0.20443000  1.0
  N  N308  1  0.71007000  0.20337000  0.91232000  1.0
  N  N309  1  0.37292000  0.57986000  0.55090000  1.0
  N  N310  1  0.38097000  0.55008000  0.87128000  1.0
  N  N311  1  0.37872000  0.87013000  0.57774000  1.0
  N  N312  1  0.04543000  0.24558000  0.21672000  1.0
  N  N313  1  0.04829000  0.21534000  0.53777000  1.0
  N  N314  1  0.04537000  0.53609000  0.24721000  1.0
  N  N315  1  0.28598000  0.08612000  0.11697000  1.0
  N  N316  1  0.29324000  0.11619000  0.79676000  1.0
  N  N317  1  0.28302000  0.79571000  0.08927000  1.0
  N  N318  1  0.95258000  0.75154000  0.78399000  1.0
  N  N319  1  0.94456000  0.78341000  0.46400000  1.0
  N  N320  1  0.94938000  0.46337000  0.75492000  1.0
  N  N321  1  0.62073000  0.41773000  0.45014000  1.0
  N  N322  1  0.61858000  0.44842000  0.13142000  1.0
  N  N323  1  0.61584000  0.13087000  0.42055000  1.0
  O  O324  1  0.17478000  0.96576000  0.70207000  1.0
  O  O325  1  0.18355000  0.69979000  0.33216000  1.0
  O  O326  1  0.17359000  0.33017000  0.96938000  1.0
  O  O327  1  0.84951000  0.63314000  0.37007000  1.0
  O  O328  1  0.84307000  0.36550000  0.00030000  1.0
  O  O329  1  0.84165000  0.99634000  0.63594000  1.0
  O  O330  1  0.50856000  0.30111000  0.03470000  1.0
  O  O331  1  0.50687000  0.03250000  0.66654000  1.0
  O  O332  1  0.51716000  0.66207000  0.30372000  1.0
  O  O333  1  0.81781000  0.03288000  0.29894000  1.0
  O  O334  1  0.82712000  0.29836000  0.66944000  1.0
  O  O335  1  0.83232000  0.66666667  0.03429333  1.0
  O  O336  1  0.49927000  0.69893000  0.96773667  1.0
  O  O337  1  0.48940000  0.96666000  0.33516000  1.0
  O  O338  1  0.49188000  0.33498000  0.69997000  1.0
  O  O339  1  0.15844000  0.36407000  0.63384000  1.0
  O  O340  1  0.16553000  0.63237000  0.00203000  1.0
  O  O341  1  0.15619000  0.00245000  0.36550000  1.0
  O  O342  1  0.94019000  0.92086000  0.76286000  1.0
  O  O343  1  0.94355000  0.75842000  0.32044000  1.0
  O  O344  1  0.93814000  0.31601000  0.92314000  1.0
  O  O345  1  0.61134000  0.58787000  0.42945000  1.0
  O  O346  1  0.60941000  0.42692000  0.98516000  1.0
  O  O347  1  0.60420000  0.98245000  0.59011000  1.0
  O  O348  1  0.26705000  0.25449000  0.09165000  1.0
  O  O349  1  0.27051000  0.09318000  0.65193000  1.0
  O  O350  1  0.27938000  0.64719000  0.25862000  1.0
  O  O351  1  0.05529000  0.07713000  0.23906000  1.0
  O  O352  1  0.06289000  0.23749000  0.68400000  1.0
  O  O353  1  0.06504000  0.68398000  0.07887000  1.0
  O  O354  1  0.73160000  0.74336000  0.90606000  1.0
  O  O355  1  0.72491000  0.90587000  0.35059000  1.0
  O  O356  1  0.72792000  0.35021000  0.74533000  1.0
  O  O357  1  0.39677000  0.41011000  0.57484000  1.0
  O  O358  1  0.39871000  0.57030000  0.01952000  1.0
  O  O359  1  0.38913000  0.01962000  0.41012000  1.0
  O  O360  1  0.24087000  0.90118000  0.63446000  1.0
  O  O361  1  0.23268000  0.63307000  0.46338000  1.0
  O  O362  1  0.24068000  0.46241000  0.90551000  1.0
  O  O363  1  0.90776000  0.56781000  0.30346000  1.0
  O  O364  1  0.91651000  0.29914000  0.12773000  1.0
  O  O365  1  0.90757000  0.12790000  0.57110000  1.0
  O  O366  1  0.56524000  0.23697000  0.96601000  1.0
  O  O367  1  0.57424000  0.96539000  0.79750000  1.0
  O  O368  1  0.58316000  0.79503000  0.23759000  1.0
  O  O369  1  0.75872000  0.09840000  0.36567000  1.0
  O  O370  1  0.75966000  0.36532000  0.53775000  1.0
  O  O371  1  0.75916000  0.53578000  0.09852000  1.0
  O  O372  1  0.42623000  0.76293000  0.03478000  1.0
  O  O373  1  0.42550000  0.03229000  0.20439000  1.0
  O  O374  1  0.43430000  0.20376000  0.76279000  1.0
  O  O375  1  0.09241000  0.42949000  0.70126000  1.0
  O  O376  1  0.09265000  0.69883000  0.87144000  1.0
  O  O377  1  0.08377000  0.87112000  0.43000000  1.0
