data_image0
_cell_length_a       27.2085
_cell_length_b       27.2921
_cell_length_c       7.19785
_cell_angle_alpha    89.9154
_cell_angle_beta     89.9231
_cell_angle_gamma    120.328

_symmetry_space_group_name_H-M    "P 1"
_symmetry_int_tables_number       1

loop_
  _symmetry_equiv_pos_as_xyz
  'x, y, z'

loop_
  _atom_site_label
  _atom_site_occupancy
  _atom_site_fract_x
  _atom_site_fract_y
  _atom_site_fract_z
  _atom_site_thermal_displace_type
  _atom_site_B_iso_or_equiv
  _atom_site_type_symbol
  Ni1      1.0000 0.38392  0.03063  0.61593  Biso   1.000  Ni
  Ni2      1.0000 0.97168  0.35592  0.60775  Biso   1.000  Ni
  Ni3      1.0000 0.64405  0.61790  0.61507  Biso   1.000  Ni
  Ni4      1.0000 0.04948  0.36408  0.94103  Biso   1.000  Ni
  Ni5      1.0000 0.64070  0.68907  0.94844  Biso   1.000  Ni
  Ni6      1.0000 0.31165  0.95195  0.94910  Biso   1.000  Ni
  Ni7      1.0000 0.71674  0.69581  0.28268  Biso   1.000  Ni
  Ni8      1.0000 0.30556  0.02293  0.28241  Biso   1.000  Ni
  Ni9      1.0000 0.97752  0.28509  0.27404  Biso   1.000  Ni
  Ni10     1.0000 0.61525  0.96963  0.39173  Biso   1.000  Ni
  Ni11     1.0000 0.02775  0.64571  0.38360  Biso   1.000  Ni
  Ni12     1.0000 0.35423  0.38404  0.38190  Biso   1.000  Ni
  Ni13     1.0000 0.28266  0.30517  0.71581  Biso   1.000  Ni
  Ni14     1.0000 0.69499  0.97878  0.72176  Biso   1.000  Ni
  Ni15     1.0000 0.02148  0.71718  0.71718  Biso   1.000  Ni
  Ni16     1.0000 0.94950  0.63882  0.05092  Biso   1.000  Ni
  Ni17     1.0000 0.36124  0.31237  0.04928  Biso   1.000  Ni
  Ni18     1.0000 0.68754  0.04875  0.05801  Biso   1.000  Ni
  S1       1.0000 0.38048  0.09854  0.44455  Biso   1.000  S
  S2       1.0000 0.90242  0.28364  0.44185  Biso   1.000  S
  S3       1.0000 0.71596  0.62095  0.44693  Biso   1.000  S
  S4       1.0000 0.04594  0.43209  0.77229  Biso   1.000  S
  S5       1.0000 0.57045  0.61826  0.77786  Biso   1.000  S
  S6       1.0000 0.38361  0.95587  0.77976  Biso   1.000  S
  S7       1.0000 0.71450  0.76479  0.11569  Biso   1.000  S
  S8       1.0000 0.23698  0.95122  0.11387  Biso   1.000  S
  S9       1.0000 0.04991  0.28961  0.10519  Biso   1.000  S
  S10      1.0000 0.62025  0.90235  0.56086  Biso   1.000  S
  S11      1.0000 0.09622  0.71752  0.55306  Biso   1.000  S
  S12      1.0000 0.28207  0.37958  0.55105  Biso   1.000  S
  S13      1.0000 0.28682  0.23739  0.88467  Biso   1.000  S
  S14      1.0000 0.76327  0.05094  0.89004  Biso   1.000  S
  S15      1.0000 0.94941  0.71322  0.88685  Biso   1.000  S
  S16      1.0000 0.95320  0.57066  0.21930  Biso   1.000  S
  S17      1.0000 0.42917  0.38477  0.21756  Biso   1.000  S
  S18      1.0000 0.61519  0.04406  0.22713  Biso   1.000  S
  O1       1.0000 0.33217  0.03424  0.82522  Biso   1.000  O
  O2       1.0000 0.96805  0.30021  0.81645  Biso   1.000  O
  O3       1.0000 0.70045  0.66983  0.82641  Biso   1.000  O
  O4       1.0000 0.99679  0.36686  0.15049  Biso   1.000  O
  O5       1.0000 0.63420  0.63450  0.15693  Biso   1.000  O
  O6       1.0000 0.36772  0.00366  0.15835  Biso   1.000  O
  O7       1.0000 0.66419  0.69889  0.49144  Biso   1.000  O
  O8       1.0000 0.30096  0.96750  0.49313  Biso   1.000  O
  O9       1.0000 0.03421  0.33793  0.48284  Biso   1.000  O
  O10      1.0000 0.66818  0.96712  0.18219  Biso   1.000  O
  O11      1.0000 0.03220  0.70164  0.17288  Biso   1.000  O
  O12      1.0000 0.29904  0.33334  0.16768  Biso   1.000  O
  O13      1.0000 0.33334  0.30107  0.50073  Biso   1.000  O
  O14      1.0000 0.69818  0.03334  0.51060  Biso   1.000  O
  O15      1.0000 0.96505  0.66502  0.50812  Biso   1.000  O
  O16      1.0000 0.00209  0.63593  0.84156  Biso   1.000  O
  O17      1.0000 0.36560  0.36763  0.83447  Biso   1.000  O
  O18      1.0000 0.63205  0.99755  0.84381  Biso   1.000  O
  O19      1.0000 0.31628  0.07914  0.05981  Biso   1.000  O
  O20      1.0000 0.92114  0.24158  0.05645  Biso   1.000  O
  O21      1.0000 0.76085  0.68399  0.06186  Biso   1.000  O
  O22      1.0000 0.98268  0.41213  0.38866  Biso   1.000  O
  O23      1.0000 0.58792  0.57308  0.39059  Biso   1.000  O
  O24      1.0000 0.42744  0.01755  0.39580  Biso   1.000  O
  O25      1.0000 0.65386  0.74551  0.73295  Biso   1.000  O
  O26      1.0000 0.25489  0.90682  0.72949  Biso   1.000  O
  O27      1.0000 0.09419  0.35281  0.72062  Biso   1.000  O
  O28      1.0000 0.68381  0.92287  0.94471  Biso   1.000  O
  O29      1.0000 0.07851  0.76251  0.93711  Biso   1.000  O
  O30      1.0000 0.23715  0.31602  0.93496  Biso   1.000  O
  O31      1.0000 0.35058  0.25664  0.26840  Biso   1.000  O
  O32      1.0000 0.74354  0.09413  0.27509  Biso   1.000  O
  O33      1.0000 0.90446  0.64979  0.27208  Biso   1.000  O
  O34      1.0000 0.01505  0.58989  0.60323  Biso   1.000  O
  O35      1.0000 0.41018  0.42970  0.60129  Biso   1.000  O
  O36      1.0000 0.57026  0.98038  0.61087  Biso   1.000  O
  C1       1.0000 0.35360  0.13390  0.57920  Biso   1.000  C
  C2       1.0000 0.86711  0.22132  0.57771  Biso   1.000  C
  C3       1.0000 0.77839  0.64767  0.58162  Biso   1.000  C
  C4       1.0000 0.01918  0.46716  0.90888  Biso   1.000  C
  C5       1.0000 0.53436  0.55552  0.91047  Biso   1.000  C
  C6       1.0000 0.44556  0.98136  0.91621  Biso   1.000  C
  C7       1.0000 0.68708  0.79936  0.25133  Biso   1.000  C
  C8       1.0000 0.20170  0.88858  0.24804  Biso   1.000  C
  C9       1.0000 0.11198  0.31564  0.24152  Biso   1.000  C
  C10      1.0000 0.64742  0.86756  0.42477  Biso   1.000  C
  C11      1.0000 0.13212  0.77999  0.41840  Biso   1.000  C
  C12      1.0000 0.21995  0.35319  0.41502  Biso   1.000  C
  C13      1.0000 0.31419  0.20258  0.74986  Biso   1.000  C
  C14      1.0000 0.79830  0.11319  0.75374  Biso   1.000  C
  C15      1.0000 0.88685  0.68627  0.75249  Biso   1.000  C
  C16      1.0000 0.98038  0.53588  0.08351  Biso   1.000  C
  C17      1.0000 0.46471  0.44705  0.08155  Biso   1.000  C
  C18      1.0000 0.55326  0.01814  0.09037  Biso   1.000  C
  C19      1.0000 0.35397  0.17954  0.48705  Biso   1.000  C
  C20      1.0000 0.82102  0.17550  0.48830  Biso   1.000  C
  C21      1.0000 0.82372  0.64714  0.48975  Biso   1.000  C
  C22      1.0000 0.01971  0.51306  0.81849  Biso   1.000  C
  C23      1.0000 0.48855  0.51011  0.81830  Biso   1.000  C
  C24      1.0000 0.49072  0.98015  0.82569  Biso   1.000  C
  C25      1.0000 0.68704  0.84493  0.16024  Biso   1.000  C
  C26      1.0000 0.15616  0.84307  0.15536  Biso   1.000  C
  C27      1.0000 0.15735  0.31500  0.15045  Biso   1.000  C
  C28      1.0000 0.64745  0.82203  0.51604  Biso   1.000  C
  C29      1.0000 0.17772  0.82548  0.51109  Biso   1.000  C
  C30      1.0000 0.17457  0.35383  0.50608  Biso   1.000  C
  C31      1.0000 0.31399  0.15706  0.84219  Biso   1.000  C
  C32      1.0000 0.84435  0.15906  0.84318  Biso   1.000  C
  C33      1.0000 0.84151  0.68676  0.84451  Biso   1.000  C
  C34      1.0000 0.98000  0.49008  0.17411  Biso   1.000  C
  C35      1.0000 0.51071  0.49242  0.17310  Biso   1.000  C
  C36      1.0000 0.50801  0.01909  0.18121  Biso   1.000  C
  H1       1.0000 0.36846  0.18776  0.34349  Biso   1.000  H
  H2       1.0000 0.81227  0.18115  0.34498  Biso   1.000  H
  H3       1.0000 0.81753  0.63286  0.34627  Biso   1.000  H
  H4       1.0000 0.03421  0.52177  0.67497  Biso   1.000  H
  H5       1.0000 0.48056  0.51632  0.67465  Biso   1.000  H
  H6       1.0000 0.48462  0.96594  0.68214  Biso   1.000  H
  H7       1.0000 0.70134  0.85347  0.01652  Biso   1.000  H
  H8       1.0000 0.14819  0.84940  0.01178  Biso   1.000  H
  H9       1.0000 0.15134  0.30096  0.00670  Biso   1.000  H
  H10      1.0000 0.63310  0.81349  0.65976  Biso   1.000  H
  H11      1.0000 0.18557  0.81931  0.65500  Biso   1.000  H
  H12      1.0000 0.18061  0.36799  0.64969  Biso   1.000  H
  H13      1.0000 0.29952  0.14876  0.98577  Biso   1.000  H
  H14      1.0000 0.85315  0.15350  0.98655  Biso   1.000  H
  H15      1.0000 0.84779  0.70109  0.98797  Biso   1.000  H
  H16      1.0000 0.96560  0.48142  0.31772  Biso   1.000  H
  H17      1.0000 0.51904  0.48613  0.31626  Biso   1.000  H
  H18      1.0000 0.51402  0.03309  0.32502  Biso   1.000  H
  C37      1.0000 0.33268  0.12223  0.76434  Biso   1.000  C
  C38      1.0000 0.87904  0.21257  0.76241  Biso   1.000  C
  C39      1.0000 0.78777  0.66841  0.76650  Biso   1.000  C
  C40      1.0000 0.99845  0.45533  0.09418  Biso   1.000  C
  C41      1.0000 0.54585  0.54623  0.09515  Biso   1.000  C
  C42      1.0000 0.45471  0.00165  0.10155  Biso   1.000  C
  C43      1.0000 0.66643  0.78760  0.43680  Biso   1.000  C
  C44      1.0000 0.21290  0.87933  0.43331  Biso   1.000  C
  C45      1.0000 0.12114  0.33601  0.42685  Biso   1.000  C
  C46      1.0000 0.66814  0.87941  0.23939  Biso   1.000  C
  C47      1.0000 0.12092  0.78925  0.23303  Biso   1.000  C
  C48      1.0000 0.21083  0.33289  0.22956  Biso   1.000  C
  C49      1.0000 0.33503  0.21424  0.56464  Biso   1.000  C
  C50      1.0000 0.78631  0.12195  0.56890  Biso   1.000  C
  C51      1.0000 0.87745  0.66557  0.56755  Biso   1.000  C
  C52      1.0000 0.00108  0.54770  0.89835  Biso   1.000  C
  C53      1.0000 0.45323  0.45633  0.89648  Biso   1.000  C
  C54      1.0000 0.54411  0.99774  0.90499  Biso   1.000  C
  C55      1.0000 0.32747  0.07550  0.89111  Biso   1.000  C
  C56      1.0000 0.92587  0.25507  0.88606  Biso   1.000  C
  C57      1.0000 0.74621  0.67367  0.89280  Biso   1.000  C
  C58      1.0000 0.99306  0.40835  0.21907  Biso   1.000  C
  C59      1.0000 0.59239  0.58809  0.22188  Biso   1.000  C
  C60      1.0000 0.41313  0.00726  0.22647  Biso   1.000  C
  C61      1.0000 0.66202  0.74108  0.56192  Biso   1.000  C
  C62      1.0000 0.25930  0.92139  0.55999  Biso   1.000  C
  C63      1.0000 0.07968  0.34184  0.55164  Biso   1.000  C
  C64      1.0000 0.67291  0.92615  0.11399  Biso   1.000  C
  C65      1.0000 0.07412  0.74759  0.10623  Biso   1.000  C
  C66      1.0000 0.25247  0.32774  0.10316  Biso   1.000  C
  C67      1.0000 0.33928  0.26038  0.43708  Biso   1.000  C
  C68      1.0000 0.73958  0.07960  0.44424  Biso   1.000  C
  C69      1.0000 0.91917  0.66057  0.44113  Biso   1.000  C
  C70      1.0000 0.00563  0.59427  0.77324  Biso   1.000  C
  C71      1.0000 0.40659  0.41445  0.76969  Biso   1.000  C
  C72      1.0000 0.58561  0.99220  0.77904  Biso   1.000  C
  O37      1.0000 0.46436  0.09882  0.75913  Biso   1.000  O
  O38      1.0000 0.90355  0.36693  0.76732  Biso   1.000  O
  O39      1.0000 0.63208  0.53759  0.75932  Biso   1.000  O
  O40      1.0000 0.12873  0.43219  0.09224  Biso   1.000  O
  O41      1.0000 0.57313  0.70086  0.08349  Biso   1.000  O
  O42      1.0000 0.30100  0.87210  0.09243  Biso   1.000  O
  O43      1.0000 0.79702  0.76303  0.43476  Biso   1.000  O
  O44      1.0000 0.23711  0.03461  0.42576  Biso   1.000  O
  O45      1.0000 0.96738  0.20497  0.41684  Biso   1.000  O
  O46      1.0000 0.53593  0.90160  0.24128  Biso   1.000  O
  O47      1.0000 0.09693  0.63468  0.24034  Biso   1.000  O
  O48      1.0000 0.36570  0.46422  0.24084  Biso   1.000  O
  O49      1.0000 0.20229  0.23707  0.57377  Biso   1.000  O
  O50      1.0000 0.76332  0.96771  0.57450  Biso   1.000  O
  O51      1.0000 0.03345  0.79624  0.56570  Biso   1.000  O
  O52      1.0000 0.86925  0.57051  0.90759  Biso   1.000  O
  O53      1.0000 0.42973  0.30117  0.90735  Biso   1.000  O
  O54      1.0000 0.69888  0.12888  0.91623  Biso   1.000  O
  C73      1.0000 0.22864  0.07565  0.42506  Biso   1.000  C
  C74      1.0000 0.92586  0.15528  0.41721  Biso   1.000  C
  C75      1.0000 0.84687  0.77189  0.43055  Biso   1.000  C
  C76      1.0000 0.89434  0.40748  0.76573  Biso   1.000  C
  C77      1.0000 0.59107  0.48763  0.75758  Biso   1.000  C
  C78      1.0000 0.51362  0.10599  0.75954  Biso   1.000  C
  C79      1.0000 0.56366  0.74121  0.08876  Biso   1.000  C
  C80      1.0000 0.25977  0.82224  0.09084  Biso   1.000  C
  C81      1.0000 0.17822  0.43994  0.09291  Biso   1.000  C
  C82      1.0000 0.77206  0.92681  0.57547  Biso   1.000  C
  C83      1.0000 0.07441  0.84625  0.56774  Biso   1.000  C
  C84      1.0000 0.15262  0.22876  0.57668  Biso   1.000  C
  C85      1.0000 0.43892  0.26060  0.90901  Biso   1.000  C
  C86      1.0000 0.73999  0.17878  0.91723  Biso   1.000  C
  C87      1.0000 0.81939  0.56167  0.91076  Biso   1.000  C
  C88      1.0000 0.10590  0.59397  0.24191  Biso   1.000  C
  C89      1.0000 0.40727  0.51387  0.24262  Biso   1.000  C
  C90      1.0000 0.48633  0.89352  0.24418  Biso   1.000  C
  N1       1.0000 0.20324  0.08836  0.28763  Biso   1.000  N
  N2       1.0000 0.91272  0.11715  0.27964  Biso   1.000  N
  N3       1.0000 0.88431  0.79663  0.28993  Biso   1.000  N
  N4       1.0000 0.86924  0.42014  0.62708  Biso   1.000  N
  N5       1.0000 0.57864  0.44992  0.61903  Biso   1.000  N
  N6       1.0000 0.55213  0.12987  0.62128  Biso   1.000  N
  N7       1.0000 0.53770  0.75442  0.95457  Biso   1.000  N
  N8       1.0000 0.24689  0.78466  0.95171  Biso   1.000  N
  N9       1.0000 0.21670  0.46391  0.95463  Biso   1.000  N
  N10      1.0000 0.79691  0.91388  0.71402  Biso   1.000  N
  N11      1.0000 0.08705  0.88381  0.70676  Biso   1.000  N
  N12      1.0000 0.11502  0.20429  0.71698  Biso   1.000  N
  N13      1.0000 0.46447  0.24846  0.04742  Biso   1.000  N
  N14      1.0000 0.75259  0.21659  0.05544  Biso   1.000  N
  N15      1.0000 0.78171  0.53663  0.05062  Biso   1.000  N
  N16      1.0000 0.13213  0.58227  0.37927  Biso   1.000  N
  N17      1.0000 0.42016  0.55158  0.38142  Biso   1.000  N
  N18      1.0000 0.44858  0.86913  0.38416  Biso   1.000  N
  H19      1.0000 0.24092  0.10493  0.54353  Biso   1.000  H
  H20      1.0000 0.89648  0.13817  0.53621  Biso   1.000  H
  H21      1.0000 0.86475  0.76042  0.54860  Biso   1.000  H
  H22      1.0000 0.90579  0.43651  0.88466  Biso   1.000  H
  H23      1.0000 0.56156  0.46984  0.87604  Biso   1.000  H
  H24      1.0000 0.52989  0.09361  0.87974  Biso   1.000  H
  H25      1.0000 0.57540  0.76937  0.21008  Biso   1.000  H
  H26      1.0000 0.23045  0.80447  0.20973  Biso   1.000  H
  H27      1.0000 0.19481  0.42807  0.21354  Biso   1.000  H
  H28      1.0000 0.76037  0.89791  0.45620  Biso   1.000  H
  H29      1.0000 0.10371  0.86415  0.44883  Biso   1.000  H
  H30      1.0000 0.13509  0.24046  0.45822  Biso   1.000  H
  H31      1.0000 0.42719  0.23128  0.79077  Biso   1.000  H
  H32      1.0000 0.76948  0.19637  0.79866  Biso   1.000  H
  H33      1.0000 0.80173  0.57337  0.79265  Biso   1.000  H
  H34      1.0000 0.09339  0.56418  0.12477  Biso   1.000  H
  H35      1.0000 0.43687  0.53126  0.12427  Biso   1.000  H
  H36      1.0000 0.46904  0.90548  0.12568  Biso   1.000  H
  C91      1.0000 0.18269  0.05394  0.11999  Biso   1.000  C
  C92      1.0000 0.94725  0.13145  0.11151  Biso   1.000  C
  C93      1.0000 0.86966  0.81681  0.12324  Biso   1.000  C
  C94      1.0000 0.84916  0.38578  0.45930  Biso   1.000  C
  C95      1.0000 0.61344  0.46470  0.45144  Biso   1.000  C
  C96      1.0000 0.53906  0.15029  0.45175  Biso   1.000  C
  C97      1.0000 0.51726  0.72117  0.78463  Biso   1.000  C
  C98      1.0000 0.28133  0.79950  0.78328  Biso   1.000  C
  C99      1.0000 0.20362  0.48430  0.78512  Biso   1.000  C
  C100     1.0000 0.81677  0.94817  0.88199  Biso   1.000  C
  C101     1.0000 0.05225  0.86902  0.87437  Biso   1.000  C
  C102     1.0000 0.12973  0.18449  0.88459  Biso   1.000  C
  C103     1.0000 0.48428  0.28304  0.21489  Biso   1.000  C
  C104     1.0000 0.71788  0.20186  0.22323  Biso   1.000  C
  C105     1.0000 0.79654  0.51692  0.21815  Biso   1.000  C
  C106     1.0000 0.15296  0.61758  0.54487  Biso   1.000  C
  C107     1.0000 0.38520  0.53684  0.54876  Biso   1.000  C
  C108     1.0000 0.46286  0.84892  0.55172  Biso   1.000  C
  C109     1.0000 0.19767  0.13883  0.29839  Biso   1.000  C
  C110     1.0000 0.86248  0.06043  0.29209  Biso   1.000  C
  C111     1.0000 0.94053  0.80207  0.29676  Biso   1.000  C
  C112     1.0000 0.86371  0.47063  0.63625  Biso   1.000  C
  C113     1.0000 0.52815  0.39331  0.62858  Biso   1.000  C
  C114     1.0000 0.60780  0.13419  0.63362  Biso   1.000  C
  C115     1.0000 0.53095  0.80405  0.97207  Biso   1.000  C
  C116     1.0000 0.19642  0.72804  0.96185  Biso   1.000  C
  C117     1.0000 0.27243  0.46836  0.96725  Biso   1.000  C
  C118     1.0000 0.80303  0.86372  0.70385  Biso   1.000  C
  C119     1.0000 0.13776  0.94031  0.69757  Biso   1.000  C
  C120     1.0000 0.05862  0.19842  0.70836  Biso   1.000  C
  C121     1.0000 0.47096  0.19852  0.03779  Biso   1.000  C
  C122     1.0000 0.80273  0.27340  0.04396  Biso   1.000  C
  C123     1.0000 0.72522  0.53057  0.04265  Biso   1.000  C
  C124     1.0000 0.13790  0.53188  0.37144  Biso   1.000  C
  C125     1.0000 0.47086  0.60809  0.37208  Biso   1.000  C
  C126     1.0000 0.39259  0.86418  0.37586  Biso   1.000  C
  H37      1.0000 0.13675  0.03739  0.10516  Biso   1.000  H
  H38      1.0000 0.96443  0.10283  0.09723  Biso   1.000  H
  H39      1.0000 0.90031  0.86225  0.10404  Biso   1.000  H
  H40      1.0000 0.80337  0.36965  0.44237  Biso   1.000  H
  H41      1.0000 0.62954  0.43528  0.43432  Biso   1.000  H
  H42      1.0000 0.56941  0.19590  0.43482  Biso   1.000  H
  H43      1.0000 0.47103  0.70337  0.77283  Biso   1.000  H
  H44      1.0000 0.29766  0.77028  0.76562  Biso   1.000  H
  H45      1.0000 0.23419  0.52986  0.76797  Biso   1.000  H
  H46      1.0000 0.86256  0.96447  0.89962  Biso   1.000  H
  H47      1.0000 0.03646  0.89869  0.89191  Biso   1.000  H
  H48      1.0000 0.09955  0.13894  0.90383  Biso   1.000  H
  H49      1.0000 0.53032  0.30045  0.23060  Biso   1.000  H
  H50      1.0000 0.70101  0.23070  0.23891  Biso   1.000  H
  H51      1.0000 0.76649  0.47134  0.23756  Biso   1.000  H
  H52      1.0000 0.19910  0.63507  0.55754  Biso   1.000  H
  H53      1.0000 0.36897  0.56617  0.56537  Biso   1.000  H
  H54      1.0000 0.43237  0.80342  0.57042  Biso   1.000  H
  H55      1.0000 0.19107  0.01874  0.13057  Biso   1.000  H
  H56      1.0000 0.98217  0.17555  0.12093  Biso   1.000  H
  H57      1.0000 0.82649  0.80983  0.13854  Biso   1.000  H
  H58      1.0000 0.85707  0.35030  0.47128  Biso   1.000  H
  H59      1.0000 0.64905  0.50837  0.46367  Biso   1.000  H
  H60      1.0000 0.49554  0.14267  0.46144  Biso   1.000  H
  H61      1.0000 0.52704  0.68684  0.78938  Biso   1.000  H
  H62      1.0000 0.31681  0.84326  0.79469  Biso   1.000  H
  H63      1.0000 0.16020  0.47696  0.79512  Biso   1.000  H
  H64      1.0000 0.80866  0.98349  0.86944  Biso   1.000  H
  H65      1.0000 0.01640  0.82549  0.86172  Biso   1.000  H
  H66      1.0000 0.17316  0.19211  0.87028  Biso   1.000  H
  H67      1.0000 0.47501  0.31763  0.20325  Biso   1.000  H
  H68      1.0000 0.68276  0.15790  0.21232  Biso   1.000  H
  H69      1.0000 0.84002  0.52468  0.20383  Biso   1.000  H
  H70      1.0000 0.14365  0.65214  0.53308  Biso   1.000  H
  H71      1.0000 0.34967  0.49313  0.53625  Biso   1.000  H
  H72      1.0000 0.50617  0.85618  0.53798  Biso   1.000  H
  H73      1.0000 0.20463  0.07967  0.99704  Biso   1.000  H
  H74      1.0000 0.92126  0.12668  0.98886  Biso   1.000  H
  H75      1.0000 0.87120  0.79377  0.00057  Biso   1.000  H
  H76      1.0000 0.87173  0.41134  0.33678  Biso   1.000  H
  H77      1.0000 0.58801  0.46154  0.32890  Biso   1.000  H
  H78      1.0000 0.54244  0.12783  0.33043  Biso   1.000  H
  H79      1.0000 0.53801  0.74815  0.66289  Biso   1.000  H
  H80      1.0000 0.25552  0.79605  0.66153  Biso   1.000  H
  H81      1.0000 0.20666  0.46162  0.66383  Biso   1.000  H
  H82      1.0000 0.79411  0.92250  0.00416  Biso   1.000  H
  H83      1.0000 0.07752  0.87177  0.99683  Biso   1.000  H
  H84      1.0000 0.12762  0.20743  0.00665  Biso   1.000  H
  H85      1.0000 0.46252  0.25722  0.33780  Biso   1.000  H
  H86      1.0000 0.74358  0.20589  0.34589  Biso   1.000  H
  H87      1.0000 0.79435  0.53980  0.34027  Biso   1.000  H
  H88      1.0000 0.13196  0.59228  0.66944  Biso   1.000  H
  H89      1.0000 0.41052  0.54001  0.67159  Biso   1.000  H
  H90      1.0000 0.46082  0.87184  0.67393  Biso   1.000  H
  H91      1.0000 0.22333  0.16937  0.18904  Biso   1.000  H
  H92      1.0000 0.84126  0.05456  0.42656  Biso   1.000  H
  H93      1.0000 0.94457  0.77623  0.18726  Biso   1.000  H
  H94      1.0000 0.88975  0.50118  0.52741  Biso   1.000  H
  H95      1.0000 0.50649  0.38702  0.76239  Biso   1.000  H
  H96      1.0000 0.61198  0.10793  0.52602  Biso   1.000  H
  H97      1.0000 0.55598  0.83558  0.86434  Biso   1.000  H
  H98      1.0000 0.17531  0.72156  0.09681  Biso   1.000  H
  H99      1.0000 0.27667  0.44197  0.86026  Biso   1.000  H
  H100     1.0000 0.77817  0.83352  0.81503  Biso   1.000  H
  H101     1.0000 0.16806  0.94517  0.80714  Biso   1.000  H
  H102     1.0000 0.05242  0.21328  0.57369  Biso   1.000  H
  H103     1.0000 0.45695  0.17792  0.90214  Biso   1.000  H
  H104     1.0000 0.82374  0.27964  0.90891  Biso   1.000  H
  H105     1.0000 0.71889  0.54557  0.90845  Biso   1.000  H
  H106     1.0000 0.12390  0.51107  0.23609  Biso   1.000  H
  H107     1.0000 0.49256  0.61427  0.23834  Biso   1.000  H
  H108     1.0000 0.38671  0.87940  0.24142  Biso   1.000  H
  H109     1.0000 0.21227  0.15940  0.43379  Biso   1.000  H
  H110     1.0000 0.87499  0.02812  0.27800  Biso   1.000  H
  H111     1.0000 0.94713  0.78772  0.43169  Biso   1.000  H
  H112     1.0000 0.87794  0.49124  0.77173  Biso   1.000  H
  H113     1.0000 0.54038  0.36082  0.61372  Biso   1.000  H
  H114     1.0000 0.61316  0.11968  0.77005  Biso   1.000  H
  H115     1.0000 0.54566  0.82373  0.10857  Biso   1.000  H
  H116     1.0000 0.20865  0.69563  0.94446  Biso   1.000  H
  H117     1.0000 0.27780  0.45408  0.10408  Biso   1.000  H
  H118     1.0000 0.78774  0.84245  0.56977  Biso   1.000  H
  H119     1.0000 0.15884  0.94693  0.56249  Biso   1.000  H
  H120     1.0000 0.02555  0.15367  0.72609  Biso   1.000  H
  H121     1.0000 0.51585  0.21107  0.05720  Biso   1.000  H
  H122     1.0000 0.79013  0.30557  0.06019  Biso   1.000  H
  H123     1.0000 0.69223  0.48577  0.05989  Biso   1.000  H
  H124     1.0000 0.18263  0.54397  0.39200  Biso   1.000  H
  H125     1.0000 0.45880  0.64071  0.38695  Biso   1.000  H
  H126     1.0000 0.35901  0.81961  0.39329  Biso   1.000  H
  H127     1.0000 0.15289  0.12694  0.28084  Biso   1.000  H
  H128     1.0000 0.83214  0.05439  0.18124  Biso   1.000  H
  H129     1.0000 0.97375  0.84665  0.27664  Biso   1.000  H
  H130     1.0000 0.81901  0.45877  0.61681  Biso   1.000  H
  H131     1.0000 0.49824  0.38793  0.51697  Biso   1.000  H
  H132     1.0000 0.64179  0.17849  0.61426  Biso   1.000  H
  H133     1.0000 0.48590  0.79142  0.95692  Biso   1.000  H
  H134     1.0000 0.16606  0.72278  0.85201  Biso   1.000  H
  H135     1.0000 0.30633  0.51268  0.94734  Biso   1.000  H
  H136     1.0000 0.84801  0.87609  0.71911  Biso   1.000  H
  H137     1.0000 0.12585  0.97293  0.71599  Biso   1.000  H
  H138     1.0000 0.05393  0.22367  0.81859  Biso   1.000  H
  H139     1.0000 0.44525  0.16777  0.14663  Biso   1.000  H
  H140     1.0000 0.83334  0.27921  0.15361  Biso   1.000  H
  H141     1.0000 0.72046  0.55559  0.15356  Biso   1.000  H
  H142     1.0000 0.11178  0.50141  0.48040  Biso   1.000  H
  H143     1.0000 0.50070  0.61331  0.48378  Biso   1.000  H
  H144     1.0000 0.38837  0.88965  0.48633  Biso   1.000  H
