data_image0
_cell_length_a       27.0212
_cell_length_b       27.0212
_cell_length_c       6.9705
_cell_angle_alpha    90
_cell_angle_beta     90
_cell_angle_gamma    120

_symmetry_space_group_name_H-M    "P 1"
_symmetry_int_tables_number       1

loop_
  _symmetry_equiv_pos_as_xyz
  'x, y, z'

loop_
  _atom_site_label
  _atom_site_occupancy
  _atom_site_fract_x
  _atom_site_fract_y
  _atom_site_fract_z
  _atom_site_thermal_displace_type
  _atom_site_B_iso_or_equiv
  _atom_site_type_symbol
  Cu1      1.0000 0.32081  0.20947  0.07174  Biso   1.000  Cu
  Cu2      1.0000 0.79053  0.11134  0.07174  Biso   1.000  Cu
  Cu3      1.0000 0.88867  0.67919  0.07174  Biso   1.000  Cu
  Cu4      1.0000 0.98747  0.54281  0.40507  Biso   1.000  Cu
  Cu5      1.0000 0.45719  0.44467  0.40507  Biso   1.000  Cu
  Cu6      1.0000 0.55533  0.01253  0.40507  Biso   1.000  Cu
  Cu7      1.0000 0.65414  0.87614  0.73841  Biso   1.000  Cu
  Cu8      1.0000 0.12386  0.77800  0.73841  Biso   1.000  Cu
  Cu9      1.0000 0.22200  0.34586  0.73841  Biso   1.000  Cu
  Cu10     1.0000 0.67919  0.79053  0.92826  Biso   1.000  Cu
  Cu11     1.0000 0.20947  0.88867  0.92826  Biso   1.000  Cu
  Cu12     1.0000 0.11134  0.32081  0.92826  Biso   1.000  Cu
  Cu13     1.0000 0.34586  0.12386  0.26159  Biso   1.000  Cu
  Cu14     1.0000 0.87614  0.22200  0.26159  Biso   1.000  Cu
  Cu15     1.0000 0.77800  0.65414  0.26159  Biso   1.000  Cu
  Cu16     1.0000 0.01253  0.45719  0.59493  Biso   1.000  Cu
  Cu17     1.0000 0.54281  0.55533  0.59493  Biso   1.000  Cu
  Cu18     1.0000 0.44467  0.98747  0.59493  Biso   1.000  Cu
  N1       1.0000 0.33525  0.24020  0.81450  Biso   1.000  N
  N2       1.0000 0.75980  0.09505  0.81450  Biso   1.000  N
  N3       1.0000 0.90495  0.66475  0.81450  Biso   1.000  N
  N4       1.0000 0.00192  0.57353  0.14783  Biso   1.000  N
  N5       1.0000 0.42647  0.42838  0.14783  Biso   1.000  N
  N6       1.0000 0.57162  0.99808  0.14783  Biso   1.000  N
  N7       1.0000 0.66858  0.90687  0.48117  Biso   1.000  N
  N8       1.0000 0.09313  0.76172  0.48117  Biso   1.000  N
  N9       1.0000 0.23828  0.33142  0.48117  Biso   1.000  N
  N10      1.0000 0.66475  0.75980  0.18550  Biso   1.000  N
  N11      1.0000 0.24020  0.90495  0.18550  Biso   1.000  N
  N12      1.0000 0.09505  0.33525  0.18550  Biso   1.000  N
  N13      1.0000 0.33142  0.09313  0.51883  Biso   1.000  N
  N14      1.0000 0.90687  0.23828  0.51883  Biso   1.000  N
  N15      1.0000 0.76172  0.66858  0.51883  Biso   1.000  N
  N16      1.0000 0.99808  0.42647  0.85217  Biso   1.000  N
  N17      1.0000 0.57353  0.57162  0.85217  Biso   1.000  N
  N18      1.0000 0.42838  0.00192  0.85217  Biso   1.000  N
  O1       1.0000 0.37203  0.17849  0.04200  Biso   1.000  O
  O2       1.0000 0.82151  0.19354  0.04200  Biso   1.000  O
  O3       1.0000 0.80646  0.62797  0.04200  Biso   1.000  O
  O4       1.0000 0.03870  0.51182  0.37533  Biso   1.000  O
  O5       1.0000 0.48818  0.52687  0.37533  Biso   1.000  O
  O6       1.0000 0.47313  0.96130  0.37533  Biso   1.000  O
  O7       1.0000 0.70536  0.84516  0.70867  Biso   1.000  O
  O8       1.0000 0.15484  0.86021  0.70867  Biso   1.000  O
  O9       1.0000 0.13979  0.29464  0.70867  Biso   1.000  O
  O10      1.0000 0.62797  0.82151  0.95800  Biso   1.000  O
  O11      1.0000 0.17849  0.80646  0.95800  Biso   1.000  O
  O12      1.0000 0.19354  0.37203  0.95800  Biso   1.000  O
  O13      1.0000 0.29464  0.15484  0.29133  Biso   1.000  O
  O14      1.0000 0.84516  0.13979  0.29133  Biso   1.000  O
  O15      1.0000 0.86021  0.70536  0.29133  Biso   1.000  O
  O16      1.0000 0.96130  0.48818  0.62467  Biso   1.000  O
  O17      1.0000 0.51182  0.47313  0.62467  Biso   1.000  O
  O18      1.0000 0.52687  0.03870  0.62467  Biso   1.000  O
  O19      1.0000 0.26646  0.23669  0.08000  Biso   1.000  O
  O20      1.0000 0.76331  0.02977  0.08000  Biso   1.000  O
  O21      1.0000 0.97023  0.73354  0.08000  Biso   1.000  O
  O22      1.0000 0.93313  0.57002  0.41333  Biso   1.000  O
  O23      1.0000 0.42998  0.36310  0.41333  Biso   1.000  O
  O24      1.0000 0.63690  0.06687  0.41333  Biso   1.000  O
  O25      1.0000 0.59979  0.90336  0.74667  Biso   1.000  O
  O26      1.0000 0.09664  0.69644  0.74667  Biso   1.000  O
  O27      1.0000 0.30356  0.40021  0.74667  Biso   1.000  O
  O28      1.0000 0.73354  0.76331  0.92000  Biso   1.000  O
  O29      1.0000 0.23669  0.97023  0.92000  Biso   1.000  O
  O30      1.0000 0.02977  0.26646  0.92000  Biso   1.000  O
  O31      1.0000 0.40021  0.09664  0.25333  Biso   1.000  O
  O32      1.0000 0.90336  0.30356  0.25333  Biso   1.000  O
  O33      1.0000 0.69644  0.59979  0.25333  Biso   1.000  O
  O34      1.0000 0.06687  0.42998  0.58667  Biso   1.000  O
  O35      1.0000 0.57002  0.63690  0.58667  Biso   1.000  O
  O36      1.0000 0.36310  0.93313  0.58667  Biso   1.000  O
  O37      1.0000 0.22904  0.27919  0.91310  Biso   1.000  O
  O38      1.0000 0.72081  0.94985  0.91310  Biso   1.000  O
  O39      1.0000 0.05015  0.77096  0.91310  Biso   1.000  O
  O40      1.0000 0.89571  0.61252  0.24643  Biso   1.000  O
  O41      1.0000 0.38748  0.28318  0.24643  Biso   1.000  O
  O42      1.0000 0.71682  0.10429  0.24643  Biso   1.000  O
  O43      1.0000 0.56237  0.94586  0.57977  Biso   1.000  O
  O44      1.0000 0.05414  0.61652  0.57977  Biso   1.000  O
  O45      1.0000 0.38348  0.43763  0.57977  Biso   1.000  O
  O46      1.0000 0.77096  0.72081  0.08690  Biso   1.000  O
  O47      1.0000 0.27919  0.05015  0.08690  Biso   1.000  O
  O48      1.0000 0.94985  0.22904  0.08690  Biso   1.000  O
  O49      1.0000 0.43763  0.05414  0.42023  Biso   1.000  O
  O50      1.0000 0.94586  0.38348  0.42023  Biso   1.000  O
  O51      1.0000 0.61652  0.56237  0.42023  Biso   1.000  O
  O52      1.0000 0.10429  0.38748  0.75357  Biso   1.000  O
  O53      1.0000 0.61252  0.71682  0.75357  Biso   1.000  O
  O54      1.0000 0.28318  0.89571  0.75357  Biso   1.000  O
  C1       1.0000 0.41110  0.22118  0.73420  Biso   1.000  C
  C2       1.0000 0.77882  0.18992  0.73420  Biso   1.000  C
  C3       1.0000 0.81008  0.58890  0.73420  Biso   1.000  C
  C4       1.0000 0.07777  0.55451  0.06753  Biso   1.000  C
  C5       1.0000 0.44549  0.52325  0.06753  Biso   1.000  C
  C6       1.0000 0.47675  0.92223  0.06753  Biso   1.000  C
  C7       1.0000 0.74443  0.88785  0.40087  Biso   1.000  C
  C8       1.0000 0.11215  0.85659  0.40087  Biso   1.000  C
  C9       1.0000 0.14341  0.25557  0.40087  Biso   1.000  C
  C10      1.0000 0.58890  0.77882  0.26580  Biso   1.000  C
  C11      1.0000 0.22118  0.81008  0.26580  Biso   1.000  C
  C12      1.0000 0.18992  0.41110  0.26580  Biso   1.000  C
  C13      1.0000 0.25557  0.11215  0.59913  Biso   1.000  C
  C14      1.0000 0.88785  0.14341  0.59913  Biso   1.000  C
  C15      1.0000 0.85659  0.74443  0.59913  Biso   1.000  C
  C16      1.0000 0.92223  0.44549  0.93247  Biso   1.000  C
  C17      1.0000 0.55451  0.47675  0.93247  Biso   1.000  C
  C18      1.0000 0.52325  0.07777  0.93247  Biso   1.000  C
  C19      1.0000 0.41206  0.19353  0.90650  Biso   1.000  C
  C20      1.0000 0.80647  0.21853  0.90650  Biso   1.000  C
  C21      1.0000 0.78147  0.58794  0.90650  Biso   1.000  C
  C22      1.0000 0.07873  0.52686  0.23983  Biso   1.000  C
  C23      1.0000 0.47314  0.55186  0.23983  Biso   1.000  C
  C24      1.0000 0.44814  0.92127  0.23983  Biso   1.000  C
  C25      1.0000 0.74539  0.86020  0.57317  Biso   1.000  C
  C26      1.0000 0.13980  0.88520  0.57317  Biso   1.000  C
  C27      1.0000 0.11480  0.25461  0.57317  Biso   1.000  C
  C28      1.0000 0.58794  0.80647  0.09350  Biso   1.000  C
  C29      1.0000 0.19353  0.78147  0.09350  Biso   1.000  C
  C30      1.0000 0.21853  0.41206  0.09350  Biso   1.000  C
  C31      1.0000 0.25461  0.13980  0.42683  Biso   1.000  C
  C32      1.0000 0.86020  0.11480  0.42683  Biso   1.000  C
  C33      1.0000 0.88520  0.74539  0.42683  Biso   1.000  C
  C34      1.0000 0.92127  0.47314  0.76017  Biso   1.000  C
  C35      1.0000 0.52686  0.44814  0.76017  Biso   1.000  C
  C36      1.0000 0.55186  0.07873  0.76017  Biso   1.000  C
  C37      1.0000 0.45673  0.18167  0.92900  Biso   1.000  C
  C38      1.0000 0.81833  0.27506  0.92900  Biso   1.000  C
  C39      1.0000 0.72494  0.54327  0.92900  Biso   1.000  C
  C40      1.0000 0.12340  0.51500  0.26233  Biso   1.000  C
  C41      1.0000 0.48500  0.60839  0.26233  Biso   1.000  C
  C42      1.0000 0.39161  0.87660  0.26233  Biso   1.000  C
  C43      1.0000 0.79006  0.84834  0.59567  Biso   1.000  C
  C44      1.0000 0.15166  0.94173  0.59567  Biso   1.000  C
  C45      1.0000 0.05827  0.20994  0.59567  Biso   1.000  C
  C46      1.0000 0.54327  0.81833  0.07100  Biso   1.000  C
  C47      1.0000 0.18167  0.72494  0.07100  Biso   1.000  C
  C48      1.0000 0.27506  0.45673  0.07100  Biso   1.000  C
  C49      1.0000 0.20994  0.15166  0.40433  Biso   1.000  C
  C50      1.0000 0.84834  0.05827  0.40433  Biso   1.000  C
  C51      1.0000 0.94173  0.79006  0.40433  Biso   1.000  C
  C52      1.0000 0.87660  0.48500  0.73767  Biso   1.000  C
  C53      1.0000 0.51500  0.39161  0.73767  Biso   1.000  C
  C54      1.0000 0.60839  0.12340  0.73767  Biso   1.000  C
  H1       1.0000 0.45970  0.16540  0.04290  Biso   1.000  H
  H2       1.0000 0.83460  0.29430  0.04290  Biso   1.000  H
  H3       1.0000 0.70570  0.54030  0.04290  Biso   1.000  H
  H4       1.0000 0.12637  0.49873  0.37623  Biso   1.000  H
  H5       1.0000 0.50127  0.62763  0.37623  Biso   1.000  H
  H6       1.0000 0.37237  0.87363  0.37623  Biso   1.000  H
  H7       1.0000 0.79303  0.83207  0.70957  Biso   1.000  H
  H8       1.0000 0.16793  0.96097  0.70957  Biso   1.000  H
  H9       1.0000 0.03903  0.20697  0.70957  Biso   1.000  H
  H10      1.0000 0.54030  0.83460  0.95710  Biso   1.000  H
  H11      1.0000 0.16540  0.70570  0.95710  Biso   1.000  H
  H12      1.0000 0.29430  0.45970  0.95710  Biso   1.000  H
  H13      1.0000 0.20697  0.16793  0.29043  Biso   1.000  H
  H14      1.0000 0.83207  0.03903  0.29043  Biso   1.000  H
  H15      1.0000 0.96097  0.79303  0.29043  Biso   1.000  H
  H16      1.0000 0.87363  0.50127  0.62377  Biso   1.000  H
  H17      1.0000 0.49873  0.37237  0.62377  Biso   1.000  H
  H18      1.0000 0.62763  0.12637  0.62377  Biso   1.000  H
  C55      1.0000 0.49632  0.19370  0.78550  Biso   1.000  C
  C56      1.0000 0.80630  0.30262  0.78550  Biso   1.000  C
  C57      1.0000 0.69738  0.50368  0.78550  Biso   1.000  C
  C58      1.0000 0.16299  0.52703  0.11883  Biso   1.000  C
  C59      1.0000 0.47297  0.63595  0.11883  Biso   1.000  C
  C60      1.0000 0.36405  0.83701  0.11883  Biso   1.000  C
  C61      1.0000 0.82965  0.86037  0.45217  Biso   1.000  C
  C62      1.0000 0.13963  0.96929  0.45217  Biso   1.000  C
  C63      1.0000 0.03071  0.17035  0.45217  Biso   1.000  C
  C64      1.0000 0.50368  0.80630  0.21450  Biso   1.000  C
  C65      1.0000 0.19370  0.69738  0.21450  Biso   1.000  C
  C66      1.0000 0.30262  0.49632  0.21450  Biso   1.000  C
  C67      1.0000 0.17035  0.13963  0.54783  Biso   1.000  C
  C68      1.0000 0.86037  0.03071  0.54783  Biso   1.000  C
  C69      1.0000 0.96929  0.82965  0.54783  Biso   1.000  C
  C70      1.0000 0.83701  0.47297  0.88117  Biso   1.000  C
  C71      1.0000 0.52703  0.36405  0.88117  Biso   1.000  C
  C72      1.0000 0.63595  0.16299  0.88117  Biso   1.000  C
  H19      1.0000 0.52540  0.18540  0.80440  Biso   1.000  H
  H20      1.0000 0.81460  0.34000  0.80440  Biso   1.000  H
  H21      1.0000 0.66000  0.47460  0.80440  Biso   1.000  H
  H22      1.0000 0.19207  0.51873  0.13773  Biso   1.000  H
  H23      1.0000 0.48127  0.67333  0.13773  Biso   1.000  H
  H24      1.0000 0.32667  0.80793  0.13773  Biso   1.000  H
  H25      1.0000 0.85873  0.85207  0.47107  Biso   1.000  H
  H26      1.0000 0.14793  0.00667  0.47107  Biso   1.000  H
  H27      1.0000 0.99333  0.14127  0.47107  Biso   1.000  H
  H28      1.0000 0.47460  0.81460  0.19560  Biso   1.000  H
  H29      1.0000 0.18540  0.66000  0.19560  Biso   1.000  H
  H30      1.0000 0.34000  0.52540  0.19560  Biso   1.000  H
  H31      1.0000 0.14127  0.14793  0.52893  Biso   1.000  H
  H32      1.0000 0.85207  0.99333  0.52893  Biso   1.000  H
  H33      1.0000 0.00667  0.85873  0.52893  Biso   1.000  H
  H34      1.0000 0.80793  0.48127  0.86227  Biso   1.000  H
  H35      1.0000 0.51873  0.32667  0.86227  Biso   1.000  H
  H36      1.0000 0.67333  0.19207  0.86227  Biso   1.000  H
  C73      1.0000 0.49348  0.21808  0.61320  Biso   1.000  C
  C74      1.0000 0.78192  0.27540  0.61320  Biso   1.000  C
  C75      1.0000 0.72460  0.50652  0.61320  Biso   1.000  C
  C76      1.0000 0.16015  0.55141  0.94653  Biso   1.000  C
  C77      1.0000 0.44859  0.60873  0.94653  Biso   1.000  C
  C78      1.0000 0.39127  0.83985  0.94653  Biso   1.000  C
  C79      1.0000 0.82681  0.88475  0.27987  Biso   1.000  C
  C80      1.0000 0.11525  0.94207  0.27987  Biso   1.000  C
  C81      1.0000 0.05793  0.17319  0.27987  Biso   1.000  C
  C82      1.0000 0.50652  0.78192  0.38680  Biso   1.000  C
  C83      1.0000 0.21808  0.72460  0.38680  Biso   1.000  C
  C84      1.0000 0.27540  0.49348  0.38680  Biso   1.000  C
  C85      1.0000 0.17319  0.11525  0.72013  Biso   1.000  C
  C86      1.0000 0.88475  0.05793  0.72013  Biso   1.000  C
  C87      1.0000 0.94207  0.82681  0.72013  Biso   1.000  C
  C88      1.0000 0.83985  0.44859  0.05347  Biso   1.000  C
  C89      1.0000 0.55141  0.39127  0.05347  Biso   1.000  C
  C90      1.0000 0.60873  0.16015  0.05347  Biso   1.000  C
  H37      1.0000 0.51960  0.22480  0.51560  Biso   1.000  H
  H38      1.0000 0.77520  0.29480  0.51560  Biso   1.000  H
  H39      1.0000 0.70520  0.48040  0.51560  Biso   1.000  H
  H40      1.0000 0.18627  0.55813  0.84893  Biso   1.000  H
  H41      1.0000 0.44187  0.62813  0.84893  Biso   1.000  H
  H42      1.0000 0.37187  0.81373  0.84893  Biso   1.000  H
  H43      1.0000 0.85293  0.89147  0.18227  Biso   1.000  H
  H44      1.0000 0.10853  0.96147  0.18227  Biso   1.000  H
  H45      1.0000 0.03853  0.14707  0.18227  Biso   1.000  H
  H46      1.0000 0.48040  0.77520  0.48440  Biso   1.000  H
  H47      1.0000 0.22480  0.70520  0.48440  Biso   1.000  H
  H48      1.0000 0.29480  0.51960  0.48440  Biso   1.000  H
  H49      1.0000 0.14707  0.10853  0.81773  Biso   1.000  H
  H50      1.0000 0.89147  0.03853  0.81773  Biso   1.000  H
  H51      1.0000 0.96147  0.85293  0.81773  Biso   1.000  H
  H52      1.0000 0.81373  0.44187  0.15107  Biso   1.000  H
  H53      1.0000 0.55813  0.37187  0.15107  Biso   1.000  H
  H54      1.0000 0.62813  0.18627  0.15107  Biso   1.000  H
  C91      1.0000 0.45171  0.23190  0.58960  Biso   1.000  C
  C92      1.0000 0.76810  0.21981  0.58960  Biso   1.000  C
  C93      1.0000 0.78019  0.54829  0.58960  Biso   1.000  C
  C94      1.0000 0.11838  0.56523  0.92293  Biso   1.000  C
  C95      1.0000 0.43477  0.55314  0.92293  Biso   1.000  C
  C96      1.0000 0.44686  0.88162  0.92293  Biso   1.000  C
  C97      1.0000 0.78504  0.89857  0.25627  Biso   1.000  C
  C98      1.0000 0.10143  0.88648  0.25627  Biso   1.000  C
  C99      1.0000 0.11352  0.21496  0.25627  Biso   1.000  C
  C100     1.0000 0.54829  0.76810  0.41040  Biso   1.000  C
  C101     1.0000 0.23190  0.78019  0.41040  Biso   1.000  C
  C102     1.0000 0.21981  0.45171  0.41040  Biso   1.000  C
  C103     1.0000 0.21496  0.10143  0.74373  Biso   1.000  C
  C104     1.0000 0.89857  0.11352  0.74373  Biso   1.000  C
  C105     1.0000 0.88648  0.78504  0.74373  Biso   1.000  C
  C106     1.0000 0.88162  0.43477  0.07707  Biso   1.000  C
  C107     1.0000 0.56523  0.44686  0.07707  Biso   1.000  C
  C108     1.0000 0.55314  0.11838  0.07707  Biso   1.000  C
  H55      1.0000 0.45000  0.24880  0.47550  Biso   1.000  H
  H56      1.0000 0.75120  0.20120  0.47550  Biso   1.000  H
  H57      1.0000 0.79880  0.55000  0.47550  Biso   1.000  H
  H58      1.0000 0.11667  0.58213  0.80883  Biso   1.000  H
  H59      1.0000 0.41787  0.53453  0.80883  Biso   1.000  H
  H60      1.0000 0.46547  0.88333  0.80883  Biso   1.000  H
  H61      1.0000 0.78333  0.91547  0.14217  Biso   1.000  H
  H62      1.0000 0.08453  0.86787  0.14217  Biso   1.000  H
  H63      1.0000 0.13213  0.21667  0.14217  Biso   1.000  H
  H64      1.0000 0.55000  0.75120  0.52450  Biso   1.000  H
  H65      1.0000 0.24880  0.79880  0.52450  Biso   1.000  H
  H66      1.0000 0.20120  0.45000  0.52450  Biso   1.000  H
  H67      1.0000 0.21667  0.08453  0.85783  Biso   1.000  H
  H68      1.0000 0.91547  0.13213  0.85783  Biso   1.000  H
  H69      1.0000 0.86787  0.78333  0.85783  Biso   1.000  H
  H70      1.0000 0.88333  0.41787  0.19117  Biso   1.000  H
  H71      1.0000 0.58213  0.46547  0.19117  Biso   1.000  H
  H72      1.0000 0.53453  0.11667  0.19117  Biso   1.000  H
  C109     1.0000 0.37135  0.24098  0.69590  Biso   1.000  C
  C110     1.0000 0.75902  0.13037  0.69590  Biso   1.000  C
  C111     1.0000 0.86963  0.62865  0.69590  Biso   1.000  C
  C112     1.0000 0.03802  0.57431  0.02923  Biso   1.000  C
  C113     1.0000 0.42569  0.46370  0.02923  Biso   1.000  C
  C114     1.0000 0.53630  0.96198  0.02923  Biso   1.000  C
  C115     1.0000 0.70468  0.90765  0.36257  Biso   1.000  C
  C116     1.0000 0.09235  0.79704  0.36257  Biso   1.000  C
  C117     1.0000 0.20296  0.29532  0.36257  Biso   1.000  C
  C118     1.0000 0.62865  0.75902  0.30410  Biso   1.000  C
  C119     1.0000 0.24098  0.86963  0.30410  Biso   1.000  C
  C120     1.0000 0.13037  0.37135  0.30410  Biso   1.000  C
  C121     1.0000 0.29532  0.09235  0.63743  Biso   1.000  C
  C122     1.0000 0.90765  0.20296  0.63743  Biso   1.000  C
  C123     1.0000 0.79704  0.70468  0.63743  Biso   1.000  C
  C124     1.0000 0.96198  0.42569  0.97077  Biso   1.000  C
  C125     1.0000 0.57431  0.53630  0.97077  Biso   1.000  C
  C126     1.0000 0.46370  0.03802  0.97077  Biso   1.000  C
  H73      1.0000 0.37220  0.25550  0.57420  Biso   1.000  H
  H74      1.0000 0.74450  0.11670  0.57420  Biso   1.000  H
  H75      1.0000 0.88330  0.62780  0.57420  Biso   1.000  H
  H76      1.0000 0.03887  0.58883  0.90753  Biso   1.000  H
  H77      1.0000 0.41117  0.45003  0.90753  Biso   1.000  H
  H78      1.0000 0.54997  0.96113  0.90753  Biso   1.000  H
  H79      1.0000 0.70553  0.92217  0.24087  Biso   1.000  H
  H80      1.0000 0.07783  0.78337  0.24087  Biso   1.000  H
  H81      1.0000 0.21663  0.29447  0.24087  Biso   1.000  H
  H82      1.0000 0.62780  0.74450  0.42580  Biso   1.000  H
  H83      1.0000 0.25550  0.88330  0.42580  Biso   1.000  H
  H84      1.0000 0.11670  0.37220  0.42580  Biso   1.000  H
  H85      1.0000 0.29447  0.07783  0.75913  Biso   1.000  H
  H86      1.0000 0.92217  0.21663  0.75913  Biso   1.000  H
  H87      1.0000 0.78337  0.70553  0.75913  Biso   1.000  H
  H88      1.0000 0.96113  0.41117  0.09247  Biso   1.000  H
  H89      1.0000 0.58883  0.54997  0.09247  Biso   1.000  H
  H90      1.0000 0.45003  0.03887  0.09247  Biso   1.000  H
  C127     1.0000 0.29851  0.26304  0.75990  Biso   1.000  C
  C128     1.0000 0.73696  0.03547  0.75990  Biso   1.000  C
  C129     1.0000 0.96453  0.70149  0.75990  Biso   1.000  C
  C130     1.0000 0.96518  0.59637  0.09323  Biso   1.000  C
  C131     1.0000 0.40363  0.36880  0.09323  Biso   1.000  C
  C132     1.0000 0.63120  0.03482  0.09323  Biso   1.000  C
  C133     1.0000 0.63184  0.92971  0.42657  Biso   1.000  C
  C134     1.0000 0.07029  0.70214  0.42657  Biso   1.000  C
  C135     1.0000 0.29786  0.36816  0.42657  Biso   1.000  C
  C136     1.0000 0.70149  0.73696  0.24010  Biso   1.000  C
  C137     1.0000 0.26304  0.96453  0.24010  Biso   1.000  C
  C138     1.0000 0.03547  0.29851  0.24010  Biso   1.000  C
  C139     1.0000 0.36816  0.07029  0.57343  Biso   1.000  C
  C140     1.0000 0.92971  0.29786  0.57343  Biso   1.000  C
  C141     1.0000 0.70214  0.63184  0.57343  Biso   1.000  C
  C142     1.0000 0.03482  0.40363  0.90677  Biso   1.000  C
  C143     1.0000 0.59637  0.63120  0.90677  Biso   1.000  C
  C144     1.0000 0.36880  0.96518  0.90677  Biso   1.000  C
  H91      1.0000 0.27450  0.24140  0.65280  Biso   1.000  H
  H92      1.0000 0.75860  0.03310  0.65280  Biso   1.000  H
  H93      1.0000 0.96690  0.72550  0.65280  Biso   1.000  H
  H94      1.0000 0.94117  0.57473  0.98613  Biso   1.000  H
  H95      1.0000 0.42527  0.36643  0.98613  Biso   1.000  H
  H96      1.0000 0.63357  0.05883  0.98613  Biso   1.000  H
  H97      1.0000 0.60783  0.90807  0.31947  Biso   1.000  H
  H98      1.0000 0.09193  0.69977  0.31947  Biso   1.000  H
  H99      1.0000 0.30023  0.39217  0.31947  Biso   1.000  H
  H100     1.0000 0.72550  0.75860  0.34720  Biso   1.000  H
  H101     1.0000 0.24140  0.96690  0.34720  Biso   1.000  H
  H102     1.0000 0.03310  0.27450  0.34720  Biso   1.000  H
  H103     1.0000 0.39217  0.09193  0.68053  Biso   1.000  H
  H104     1.0000 0.90807  0.30023  0.68053  Biso   1.000  H
  H105     1.0000 0.69977  0.60783  0.68053  Biso   1.000  H
  H106     1.0000 0.05883  0.42527  0.01387  Biso   1.000  H
  H107     1.0000 0.57473  0.63357  0.01387  Biso   1.000  H
  H108     1.0000 0.36643  0.94117  0.01387  Biso   1.000  H
  H109     1.0000 0.32180  0.30250  0.71960  Biso   1.000  H
  H110     1.0000 0.69750  0.01930  0.71960  Biso   1.000  H
  H111     1.0000 0.98070  0.67820  0.71960  Biso   1.000  H
  H112     1.0000 0.98847  0.63583  0.05293  Biso   1.000  H
  H113     1.0000 0.36417  0.35263  0.05293  Biso   1.000  H
  H114     1.0000 0.64737  0.01153  0.05293  Biso   1.000  H
  H115     1.0000 0.65513  0.96917  0.38627  Biso   1.000  H
  H116     1.0000 0.03083  0.68597  0.38627  Biso   1.000  H
  H117     1.0000 0.31403  0.34487  0.38627  Biso   1.000  H
  H118     1.0000 0.67820  0.69750  0.28040  Biso   1.000  H
  H119     1.0000 0.30250  0.98070  0.28040  Biso   1.000  H
  H120     1.0000 0.01930  0.32180  0.28040  Biso   1.000  H
  H121     1.0000 0.34487  0.03083  0.61373  Biso   1.000  H
  H122     1.0000 0.96917  0.31403  0.61373  Biso   1.000  H
  H123     1.0000 0.68597  0.65513  0.61373  Biso   1.000  H
  H124     1.0000 0.01153  0.36417  0.94707  Biso   1.000  H
  H125     1.0000 0.63583  0.64737  0.94707  Biso   1.000  H
  H126     1.0000 0.35263  0.98847  0.94707  Biso   1.000  H
  C145     1.0000 0.26138  0.25966  0.92790  Biso   1.000  C
  C146     1.0000 0.74034  0.00172  0.92790  Biso   1.000  C
  C147     1.0000 0.99828  0.73862  0.92790  Biso   1.000  C
  C148     1.0000 0.92805  0.59299  0.26123  Biso   1.000  C
  C149     1.0000 0.40701  0.33505  0.26123  Biso   1.000  C
  C150     1.0000 0.66495  0.07195  0.26123  Biso   1.000  C
  C151     1.0000 0.59471  0.92633  0.59457  Biso   1.000  C
  C152     1.0000 0.07367  0.66839  0.59457  Biso   1.000  C
  C153     1.0000 0.33161  0.40529  0.59457  Biso   1.000  C
  C154     1.0000 0.73862  0.74034  0.07210  Biso   1.000  C
  C155     1.0000 0.25966  0.99828  0.07210  Biso   1.000  C
  C156     1.0000 0.00172  0.26138  0.07210  Biso   1.000  C
  C157     1.0000 0.40529  0.07367  0.40543  Biso   1.000  C
  C158     1.0000 0.92633  0.33161  0.40543  Biso   1.000  C
  C159     1.0000 0.66839  0.59471  0.40543  Biso   1.000  C
  C160     1.0000 0.07195  0.40701  0.73877  Biso   1.000  C
  C161     1.0000 0.59299  0.66495  0.73877  Biso   1.000  C
  C162     1.0000 0.33505  0.92805  0.73877  Biso   1.000  C
