data_image0
_cell_length_a       14.6766
_cell_length_b       14.6766
_cell_length_c       28.0033
_cell_angle_alpha    90
_cell_angle_beta     90
_cell_angle_gamma    90

_symmetry_space_group_name_H-M    "P 1"
_symmetry_int_tables_number       1

loop_
  _symmetry_equiv_pos_as_xyz
  'x, y, z'

loop_
  _atom_site_label
  _atom_site_occupancy
  _atom_site_fract_x
  _atom_site_fract_y
  _atom_site_fract_z
  _atom_site_thermal_displace_type
  _atom_site_B_iso_or_equiv
  _atom_site_type_symbol
  Zr1      1.0000 0.00000  0.00000  0.08772  Biso   1.000  Zr
  Zr2      1.0000 0.50000  0.50000  0.58772  Biso   1.000  Zr
  Zr3      1.0000 0.00000  0.00000  0.91228  Biso   1.000  Zr
  Zr4      1.0000 0.50000  0.50000  0.41228  Biso   1.000  Zr
  Zr5      1.0000 0.16211  0.05358  0.00000  Biso   1.000  Zr
  Zr6      1.0000 0.05358  0.83789  0.00000  Biso   1.000  Zr
  Zr7      1.0000 0.66211  0.55358  0.50000  Biso   1.000  Zr
  Zr8      1.0000 0.33789  0.44642  0.50000  Biso   1.000  Zr
  Zr9      1.0000 0.44642  0.66211  0.50000  Biso   1.000  Zr
  Zr10     1.0000 0.55358  0.33789  0.50000  Biso   1.000  Zr
  O1       1.0000 0.12280  0.03610  0.12801  Biso   1.000  O
  O2       1.0000 0.87720  0.96390  0.12801  Biso   1.000  O
  O3       1.0000 0.96390  0.12280  0.12801  Biso   1.000  O
  O4       1.0000 0.03610  0.87720  0.12801  Biso   1.000  O
  O5       1.0000 0.62280  0.53610  0.62801  Biso   1.000  O
  O6       1.0000 0.37720  0.46390  0.62801  Biso   1.000  O
  O7       1.0000 0.46390  0.62280  0.62801  Biso   1.000  O
  O8       1.0000 0.53610  0.37720  0.62801  Biso   1.000  O
  O9       1.0000 0.87720  0.96390  0.87199  Biso   1.000  O
  O10      1.0000 0.12280  0.03610  0.87199  Biso   1.000  O
  O11      1.0000 0.03610  0.87720  0.87199  Biso   1.000  O
  O12      1.0000 0.96390  0.12280  0.87199  Biso   1.000  O
  O13      1.0000 0.37720  0.46390  0.37199  Biso   1.000  O
  O14      1.0000 0.62280  0.53610  0.37199  Biso   1.000  O
  O15      1.0000 0.53610  0.37720  0.37199  Biso   1.000  O
  O16      1.0000 0.46390  0.62280  0.37199  Biso   1.000  O
  C1       1.0000 0.50000  0.00000  0.25000  Biso   1.000  C
  C2       1.0000 0.00000  0.50000  0.25000  Biso   1.000  C
  C3       1.0000 0.00000  0.50000  0.75000  Biso   1.000  C
  C4       1.0000 0.50000  0.00000  0.75000  Biso   1.000  C
  O17      1.0000 0.79310  0.47900  0.50000  Biso   1.000  O
  O18      1.0000 0.20690  0.52100  0.50000  Biso   1.000  O
  O19      1.0000 0.52100  0.79310  0.50000  Biso   1.000  O
  O20      1.0000 0.47900  0.20690  0.50000  Biso   1.000  O
  O21      1.0000 0.22570  0.18850  0.00000  Biso   1.000  O
  O22      1.0000 0.18850  0.77430  0.00000  Biso   1.000  O
  O23      1.0000 0.72570  0.68850  0.50000  Biso   1.000  O
  O24      1.0000 0.27430  0.31150  0.50000  Biso   1.000  O
  O25      1.0000 0.31150  0.72570  0.50000  Biso   1.000  O
  O26      1.0000 0.68850  0.27430  0.50000  Biso   1.000  O
  O27      1.0000 0.22650  0.07310  0.07310  Biso   1.000  O
  O28      1.0000 0.77350  0.92690  0.07310  Biso   1.000  O
  O29      1.0000 0.92690  0.22650  0.07310  Biso   1.000  O
  O30      1.0000 0.07310  0.77350  0.07310  Biso   1.000  O
  O31      1.0000 0.72650  0.57310  0.57310  Biso   1.000  O
  O32      1.0000 0.27350  0.42690  0.57310  Biso   1.000  O
  O33      1.0000 0.42690  0.72650  0.57310  Biso   1.000  O
  O34      1.0000 0.57310  0.27350  0.57310  Biso   1.000  O
  O35      1.0000 0.77350  0.92690  0.92690  Biso   1.000  O
  O36      1.0000 0.22650  0.07310  0.92690  Biso   1.000  O
  O37      1.0000 0.07310  0.77350  0.92690  Biso   1.000  O
  O38      1.0000 0.92690  0.22650  0.92690  Biso   1.000  O
  O39      1.0000 0.27350  0.42690  0.42690  Biso   1.000  O
  O40      1.0000 0.72650  0.57310  0.42690  Biso   1.000  O
  O41      1.0000 0.57310  0.27350  0.42690  Biso   1.000  O
  O42      1.0000 0.42690  0.72650  0.42690  Biso   1.000  O
  C5       1.0000 0.27580  0.04820  0.15202  Biso   1.000  C
  C6       1.0000 0.72420  0.95180  0.15202  Biso   1.000  C
  C7       1.0000 0.95180  0.27580  0.15202  Biso   1.000  C
  C8       1.0000 0.04820  0.72420  0.15202  Biso   1.000  C
  C9       1.0000 0.77580  0.54820  0.65202  Biso   1.000  C
  C10      1.0000 0.22420  0.45180  0.65202  Biso   1.000  C
  C11      1.0000 0.45180  0.77580  0.65202  Biso   1.000  C
  C12      1.0000 0.54820  0.22420  0.65202  Biso   1.000  C
  C13      1.0000 0.72420  0.95180  0.84798  Biso   1.000  C
  C14      1.0000 0.27580  0.04820  0.84798  Biso   1.000  C
  C15      1.0000 0.04820  0.72420  0.84798  Biso   1.000  C
  C16      1.0000 0.95180  0.27580  0.84798  Biso   1.000  C
  C17      1.0000 0.22420  0.45180  0.34798  Biso   1.000  C
  C18      1.0000 0.77580  0.54820  0.34798  Biso   1.000  C
  C19      1.0000 0.54820  0.22420  0.34798  Biso   1.000  C
  C20      1.0000 0.45180  0.77580  0.34798  Biso   1.000  C
  C21      1.0000 0.26173  0.99410  0.19207  Biso   1.000  C
  C22      1.0000 0.73827  0.00590  0.19207  Biso   1.000  C
  C23      1.0000 0.00590  0.26173  0.19207  Biso   1.000  C
  C24      1.0000 0.99410  0.73827  0.19207  Biso   1.000  C
  C25      1.0000 0.76173  0.49410  0.69207  Biso   1.000  C
  C26      1.0000 0.23827  0.50590  0.69207  Biso   1.000  C
  C27      1.0000 0.50590  0.76173  0.69207  Biso   1.000  C
  C28      1.0000 0.49410  0.23827  0.69207  Biso   1.000  C
  C29      1.0000 0.73827  0.00590  0.80793  Biso   1.000  C
  C30      1.0000 0.26173  0.99410  0.80793  Biso   1.000  C
  C31      1.0000 0.99410  0.73827  0.80793  Biso   1.000  C
  C32      1.0000 0.00590  0.26173  0.80793  Biso   1.000  C
  C33      1.0000 0.23827  0.50590  0.30793  Biso   1.000  C
  C34      1.0000 0.76173  0.49410  0.30793  Biso   1.000  C
  C35      1.0000 0.49410  0.23827  0.30793  Biso   1.000  C
  C36      1.0000 0.50590  0.76173  0.30793  Biso   1.000  C
  H1       1.0000 0.20400  0.96670  0.19730  Biso   1.000  H
  H2       1.0000 0.79600  0.03330  0.19730  Biso   1.000  H
  H3       1.0000 0.03330  0.20400  0.19730  Biso   1.000  H
  H4       1.0000 0.96670  0.79600  0.19730  Biso   1.000  H
  H5       1.0000 0.70400  0.46670  0.69730  Biso   1.000  H
  H6       1.0000 0.29600  0.53330  0.69730  Biso   1.000  H
  H7       1.0000 0.53330  0.70400  0.69730  Biso   1.000  H
  H8       1.0000 0.46670  0.29600  0.69730  Biso   1.000  H
  H9       1.0000 0.79600  0.03330  0.80270  Biso   1.000  H
  H10      1.0000 0.20400  0.96670  0.80270  Biso   1.000  H
  H11      1.0000 0.96670  0.79600  0.80270  Biso   1.000  H
  H12      1.0000 0.03330  0.20400  0.80270  Biso   1.000  H
  H13      1.0000 0.29600  0.53330  0.30270  Biso   1.000  H
  H14      1.0000 0.70400  0.46670  0.30270  Biso   1.000  H
  H15      1.0000 0.46670  0.29600  0.30270  Biso   1.000  H
  H16      1.0000 0.53330  0.70400  0.30270  Biso   1.000  H
  C37      1.0000 0.33217  0.98010  0.22443  Biso   1.000  C
  C38      1.0000 0.66783  0.01990  0.22443  Biso   1.000  C
  C39      1.0000 0.01990  0.33217  0.22443  Biso   1.000  C
  C40      1.0000 0.98010  0.66783  0.22443  Biso   1.000  C
  C41      1.0000 0.83217  0.48010  0.72443  Biso   1.000  C
  C42      1.0000 0.16783  0.51990  0.72443  Biso   1.000  C
  C43      1.0000 0.51990  0.83217  0.72443  Biso   1.000  C
  C44      1.0000 0.48010  0.16783  0.72443  Biso   1.000  C
  C45      1.0000 0.66783  0.01990  0.77557  Biso   1.000  C
  C46      1.0000 0.33217  0.98010  0.77557  Biso   1.000  C
  C47      1.0000 0.98010  0.66783  0.77557  Biso   1.000  C
  C48      1.0000 0.01990  0.33217  0.77557  Biso   1.000  C
  C49      1.0000 0.16783  0.51990  0.27557  Biso   1.000  C
  C50      1.0000 0.83217  0.48010  0.27557  Biso   1.000  C
  C51      1.0000 0.48010  0.16783  0.27557  Biso   1.000  C
  C52      1.0000 0.51990  0.83217  0.27557  Biso   1.000  C
  H17      1.0000 0.32260  0.94310  0.25180  Biso   1.000  H
  H18      1.0000 0.67740  0.05690  0.25180  Biso   1.000  H
  H19      1.0000 0.05690  0.32260  0.25180  Biso   1.000  H
  H20      1.0000 0.94310  0.67740  0.25180  Biso   1.000  H
  H21      1.0000 0.82260  0.44310  0.75180  Biso   1.000  H
  H22      1.0000 0.17740  0.55690  0.75180  Biso   1.000  H
  H23      1.0000 0.55690  0.82260  0.75180  Biso   1.000  H
  H24      1.0000 0.44310  0.17740  0.75180  Biso   1.000  H
  H25      1.0000 0.67740  0.05690  0.74820  Biso   1.000  H
  H26      1.0000 0.32260  0.94310  0.74820  Biso   1.000  H
  H27      1.0000 0.94310  0.67740  0.74820  Biso   1.000  H
  H28      1.0000 0.05690  0.32260  0.74820  Biso   1.000  H
  H29      1.0000 0.17740  0.55690  0.24820  Biso   1.000  H
  H30      1.0000 0.82260  0.44310  0.24820  Biso   1.000  H
  H31      1.0000 0.44310  0.17740  0.24820  Biso   1.000  H
  H32      1.0000 0.55690  0.82260  0.24820  Biso   1.000  H
  C53      1.0000 0.41668  0.02030  0.21674  Biso   1.000  C
  C54      1.0000 0.58332  0.97970  0.21674  Biso   1.000  C
  C55      1.0000 0.97970  0.41668  0.21674  Biso   1.000  C
  C56      1.0000 0.02030  0.58332  0.21674  Biso   1.000  C
  C57      1.0000 0.91668  0.52030  0.71674  Biso   1.000  C
  C58      1.0000 0.08332  0.47970  0.71674  Biso   1.000  C
  C59      1.0000 0.47970  0.91668  0.71674  Biso   1.000  C
  C60      1.0000 0.52030  0.08332  0.71674  Biso   1.000  C
  C61      1.0000 0.58332  0.97970  0.78326  Biso   1.000  C
  C62      1.0000 0.41668  0.02030  0.78326  Biso   1.000  C
  C63      1.0000 0.02030  0.58332  0.78326  Biso   1.000  C
  C64      1.0000 0.97970  0.41668  0.78326  Biso   1.000  C
  C65      1.0000 0.08332  0.47970  0.28326  Biso   1.000  C
  C66      1.0000 0.91668  0.52030  0.28326  Biso   1.000  C
  C67      1.0000 0.52030  0.08332  0.28326  Biso   1.000  C
  C68      1.0000 0.47970  0.91668  0.28326  Biso   1.000  C
  C69      1.0000 0.43075  0.07440  0.17668  Biso   1.000  C
  C70      1.0000 0.56925  0.92560  0.17668  Biso   1.000  C
  C71      1.0000 0.92560  0.43075  0.17668  Biso   1.000  C
  C72      1.0000 0.07440  0.56925  0.17668  Biso   1.000  C
  C73      1.0000 0.93075  0.57440  0.67668  Biso   1.000  C
  C74      1.0000 0.06925  0.42560  0.67668  Biso   1.000  C
  C75      1.0000 0.42560  0.93075  0.67668  Biso   1.000  C
  C76      1.0000 0.57440  0.06925  0.67668  Biso   1.000  C
  C77      1.0000 0.56925  0.92560  0.82332  Biso   1.000  C
  C78      1.0000 0.43075  0.07440  0.82332  Biso   1.000  C
  C79      1.0000 0.07440  0.56925  0.82332  Biso   1.000  C
  C80      1.0000 0.92560  0.43075  0.82332  Biso   1.000  C
  C81      1.0000 0.06925  0.42560  0.32332  Biso   1.000  C
  C82      1.0000 0.93075  0.57440  0.32332  Biso   1.000  C
  C83      1.0000 0.57440  0.06925  0.32332  Biso   1.000  C
  C84      1.0000 0.42560  0.93075  0.32332  Biso   1.000  C
  H33      1.0000 0.48850  0.10190  0.17140  Biso   1.000  H
  H34      1.0000 0.51150  0.89810  0.17140  Biso   1.000  H
  H35      1.0000 0.89810  0.48850  0.17140  Biso   1.000  H
  H36      1.0000 0.10190  0.51150  0.17140  Biso   1.000  H
  H37      1.0000 0.98850  0.60190  0.67140  Biso   1.000  H
  H38      1.0000 0.01150  0.39810  0.67140  Biso   1.000  H
  H39      1.0000 0.39810  0.98850  0.67140  Biso   1.000  H
  H40      1.0000 0.60190  0.01150  0.67140  Biso   1.000  H
  H41      1.0000 0.51150  0.89810  0.82860  Biso   1.000  H
  H42      1.0000 0.48850  0.10190  0.82860  Biso   1.000  H
  H43      1.0000 0.10190  0.51150  0.82860  Biso   1.000  H
  H44      1.0000 0.89810  0.48850  0.82860  Biso   1.000  H
  H45      1.0000 0.01150  0.39810  0.32860  Biso   1.000  H
  H46      1.0000 0.98850  0.60190  0.32860  Biso   1.000  H
  H47      1.0000 0.60190  0.01150  0.32860  Biso   1.000  H
  H48      1.0000 0.39810  0.98850  0.32860  Biso   1.000  H
  C85      1.0000 0.36031  0.08840  0.14432  Biso   1.000  C
  C86      1.0000 0.63969  0.91160  0.14432  Biso   1.000  C
  C87      1.0000 0.91160  0.36031  0.14432  Biso   1.000  C
  C88      1.0000 0.08840  0.63969  0.14432  Biso   1.000  C
  C89      1.0000 0.86031  0.58840  0.64432  Biso   1.000  C
  C90      1.0000 0.13969  0.41160  0.64432  Biso   1.000  C
  C91      1.0000 0.41160  0.86031  0.64432  Biso   1.000  C
  C92      1.0000 0.58840  0.13969  0.64432  Biso   1.000  C
  C93      1.0000 0.63969  0.91160  0.85568  Biso   1.000  C
  C94      1.0000 0.36031  0.08840  0.85568  Biso   1.000  C
  C95      1.0000 0.08840  0.63969  0.85568  Biso   1.000  C
  C96      1.0000 0.91160  0.36031  0.85568  Biso   1.000  C
  C97      1.0000 0.13969  0.41160  0.35568  Biso   1.000  C
  C98      1.0000 0.86031  0.58840  0.35568  Biso   1.000  C
  C99      1.0000 0.58840  0.13969  0.35568  Biso   1.000  C
  C100     1.0000 0.41160  0.86031  0.35568  Biso   1.000  C
  H49      1.0000 0.36990  0.12540  0.11690  Biso   1.000  H
  H50      1.0000 0.63010  0.87460  0.11690  Biso   1.000  H
  H51      1.0000 0.87460  0.36990  0.11690  Biso   1.000  H
  H52      1.0000 0.12540  0.63010  0.11690  Biso   1.000  H
  H53      1.0000 0.86990  0.62540  0.61690  Biso   1.000  H
  H54      1.0000 0.13010  0.37460  0.61690  Biso   1.000  H
  H55      1.0000 0.37460  0.86990  0.61690  Biso   1.000  H
  H56      1.0000 0.62540  0.13010  0.61690  Biso   1.000  H
  H57      1.0000 0.63010  0.87460  0.88310  Biso   1.000  H
  H58      1.0000 0.36990  0.12540  0.88310  Biso   1.000  H
  H59      1.0000 0.12540  0.63010  0.88310  Biso   1.000  H
  H60      1.0000 0.87460  0.36990  0.88310  Biso   1.000  H
  H61      1.0000 0.13010  0.37460  0.38310  Biso   1.000  H
  H62      1.0000 0.86990  0.62540  0.38310  Biso   1.000  H
  H63      1.0000 0.62540  0.13010  0.38310  Biso   1.000  H
  H64      1.0000 0.37460  0.86990  0.38310  Biso   1.000  H
  C101     1.0000 0.20280  0.05350  0.11455  Biso   1.000  C
  C102     1.0000 0.79720  0.94650  0.11455  Biso   1.000  C
  C103     1.0000 0.94650  0.20280  0.11455  Biso   1.000  C
  C104     1.0000 0.05350  0.79720  0.11455  Biso   1.000  C
  C105     1.0000 0.70280  0.55350  0.61455  Biso   1.000  C
  C106     1.0000 0.29720  0.44650  0.61455  Biso   1.000  C
  C107     1.0000 0.44650  0.70280  0.61455  Biso   1.000  C
  C108     1.0000 0.55350  0.29720  0.61455  Biso   1.000  C
  C109     1.0000 0.79720  0.94650  0.88545  Biso   1.000  C
  C110     1.0000 0.20280  0.05350  0.88545  Biso   1.000  C
  C111     1.0000 0.05350  0.79720  0.88545  Biso   1.000  C
  C112     1.0000 0.94650  0.20280  0.88545  Biso   1.000  C
  C113     1.0000 0.29720  0.44650  0.38545  Biso   1.000  C
  C114     1.0000 0.70280  0.55350  0.38545  Biso   1.000  C
  C115     1.0000 0.55350  0.29720  0.38545  Biso   1.000  C
  C116     1.0000 0.44650  0.70280  0.38545  Biso   1.000  C
  O43      1.0000 0.08920  0.95450  0.03700  Biso   1.000  O
  O44      1.0000 0.04550  0.08920  0.03700  Biso   1.000  O
  O45      1.0000 0.41080  0.54550  0.53700  Biso   1.000  O
  O46      1.0000 0.58920  0.45450  0.53700  Biso   1.000  O
  O47      1.0000 0.45450  0.41080  0.53700  Biso   1.000  O
  O48      1.0000 0.54550  0.58920  0.53700  Biso   1.000  O
  O49      1.0000 0.04550  0.08920  0.96300  Biso   1.000  O
  O50      1.0000 0.58920  0.45450  0.46300  Biso   1.000  O
  O51      1.0000 0.41080  0.54550  0.46300  Biso   1.000  O
  O52      1.0000 0.54550  0.58920  0.46300  Biso   1.000  O
  O53      1.0000 0.45450  0.41080  0.46300  Biso   1.000  O
  Zr11     1.0000 0.83789  0.94642  0.00000  Biso   1.000  Zr
  O54      1.0000 0.77430  0.81150  0.00000  Biso   1.000  O
  O55      1.0000 0.95450  0.91080  0.03700  Biso   1.000  O
  Zr12     1.0000 0.94642  0.16211  0.00000  Biso   1.000  Zr
  O56      1.0000 0.81150  0.22570  0.00000  Biso   1.000  O
  O57      1.0000 0.91080  0.04550  0.03700  Biso   1.000  O
  O58      1.0000 0.29310  0.97900  0.00000  Biso   1.000  O
  O59      1.0000 0.97900  0.70690  0.00000  Biso   1.000  O
  O60      1.0000 0.08920  0.95450  0.96300  Biso   1.000  O
  O61      1.0000 0.91080  0.04550  0.96300  Biso   1.000  O
  O62      1.0000 0.95450  0.91080  0.96300  Biso   1.000  O
  O63      1.0000 0.70690  0.02100  0.00000  Biso   1.000  O
  O64      1.0000 0.02100  0.29310  0.00000  Biso   1.000  O
  H65      1.0000 0.28138  0.91284  0.99584  Biso   1.000  H
  H66      1.0000 0.33176  0.00131  0.97335  Biso   1.000  H
  H67      1.0000 0.71862  0.08716  0.99584  Biso   1.000  H
  H68      1.0000 0.66824  0.99869  0.97335  Biso   1.000  H
  H69      1.0000 0.08716  0.28138  0.99584  Biso   1.000  H
  H70      1.0000 0.99869  0.33176  0.97335  Biso   1.000  H
  H71      1.0000 0.99556  0.67152  0.02895  Biso   1.000  H
  H72      1.0000 0.91241  0.71886  0.00000  Biso   1.000  H
  H73      1.0000 0.78138  0.41284  0.49584  Biso   1.000  H
  H74      1.0000 0.83176  0.50131  0.47335  Biso   1.000  H
  H75      1.0000 0.21862  0.58716  0.49584  Biso   1.000  H
  H76      1.0000 0.16825  0.49869  0.47335  Biso   1.000  H
  H77      1.0000 0.58716  0.78138  0.49584  Biso   1.000  H
  H78      1.0000 0.49869  0.83176  0.47335  Biso   1.000  H
  H79      1.0000 0.41284  0.21862  0.49584  Biso   1.000  H
  H80      1.0000 0.50131  0.16825  0.47335  Biso   1.000  H
  H81      1.0000 0.25833  0.19805  0.03066  Biso   1.000  H
  H82      1.0000 0.26963  0.19273  0.97312  Biso   1.000  H
  H83      1.0000 0.74167  0.80195  0.03066  Biso   1.000  H
  H84      1.0000 0.73037  0.80727  0.97312  Biso   1.000  H
  H85      1.0000 0.80195  0.25833  0.03066  Biso   1.000  H
  H86      1.0000 0.80727  0.26963  0.97312  Biso   1.000  H
  H87      1.0000 0.18214  0.70791  0.00598  Biso   1.000  H
  H88      1.0000 0.21807  0.78413  0.96852  Biso   1.000  H
  H89      1.0000 0.75833  0.69805  0.53066  Biso   1.000  H
  H90      1.0000 0.76963  0.69273  0.47312  Biso   1.000  H
  H91      1.0000 0.24167  0.30195  0.53066  Biso   1.000  H
  H92      1.0000 0.23037  0.30727  0.47312  Biso   1.000  H
  H93      1.0000 0.30195  0.75833  0.53066  Biso   1.000  H
  H94      1.0000 0.30727  0.76963  0.47312  Biso   1.000  H
  H95      1.0000 0.69805  0.24167  0.53066  Biso   1.000  H
  H96      1.0000 0.69273  0.23037  0.47312  Biso   1.000  H
