data_image0
_cell_length_a       15.347
_cell_length_b       15.347
_cell_length_c       12.3845
_cell_angle_alpha    90
_cell_angle_beta     90
_cell_angle_gamma    90

_symmetry_space_group_name_H-M    "P 1"
_symmetry_int_tables_number       1

loop_
  _symmetry_equiv_pos_as_xyz
  'x, y, z'

loop_
  _atom_site_label
  _atom_site_occupancy
  _atom_site_fract_x
  _atom_site_fract_y
  _atom_site_fract_z
  _atom_site_thermal_displace_type
  _atom_site_B_iso_or_equiv
  _atom_site_type_symbol
  Sc1      1.0000 0.81278  0.18722  0.00000  Biso   1.000  Sc
  Sc2      1.0000 0.81278  0.31278  0.25000  Biso   1.000  Sc
  Sc3      1.0000 0.68722  0.31278  0.50000  Biso   1.000  Sc
  Sc4      1.0000 0.68722  0.18722  0.75000  Biso   1.000  Sc
  Sc5      1.0000 0.31278  0.68722  0.50000  Biso   1.000  Sc
  Sc6      1.0000 0.31278  0.81278  0.75000  Biso   1.000  Sc
  Sc7      1.0000 0.18722  0.81278  0.00000  Biso   1.000  Sc
  Sc8      1.0000 0.18722  0.68722  0.25000  Biso   1.000  Sc
  O1       1.0000 0.71101  0.09497  0.00761  Biso   1.000  O
  O2       1.0000 0.90503  0.21101  0.25761  Biso   1.000  O
  O3       1.0000 0.78899  0.40503  0.50761  Biso   1.000  O
  O4       1.0000 0.59497  0.28899  0.75761  Biso   1.000  O
  O5       1.0000 0.71101  0.40503  0.24239  Biso   1.000  O
  O6       1.0000 0.59497  0.21101  0.49239  Biso   1.000  O
  O7       1.0000 0.78899  0.09497  0.74239  Biso   1.000  O
  O8       1.0000 0.90503  0.28899  0.99239  Biso   1.000  O
  O9       1.0000 0.21101  0.59497  0.50761  Biso   1.000  O
  O10      1.0000 0.40503  0.71101  0.75761  Biso   1.000  O
  O11      1.0000 0.28899  0.90503  0.00761  Biso   1.000  O
  O12      1.0000 0.09497  0.78899  0.25761  Biso   1.000  O
  O13      1.0000 0.21101  0.90503  0.74239  Biso   1.000  O
  O14      1.0000 0.09497  0.71101  0.99239  Biso   1.000  O
  O15      1.0000 0.28899  0.59497  0.24239  Biso   1.000  O
  O16      1.0000 0.40503  0.78899  0.49239  Biso   1.000  O
  O17      1.0000 0.62281  0.10693  0.86393  Biso   1.000  O
  O18      1.0000 0.89307  0.12281  0.11393  Biso   1.000  O
  O19      1.0000 0.87719  0.39307  0.36393  Biso   1.000  O
  O20      1.0000 0.60693  0.37719  0.61393  Biso   1.000  O
  O21      1.0000 0.62281  0.39307  0.38607  Biso   1.000  O
  O22      1.0000 0.60693  0.12281  0.63607  Biso   1.000  O
  O23      1.0000 0.87719  0.10693  0.88607  Biso   1.000  O
  O24      1.0000 0.89307  0.37719  0.13607  Biso   1.000  O
  O25      1.0000 0.12281  0.60693  0.36393  Biso   1.000  O
  O26      1.0000 0.39307  0.62281  0.61393  Biso   1.000  O
  O27      1.0000 0.37719  0.89307  0.86393  Biso   1.000  O
  O28      1.0000 0.10693  0.87719  0.11393  Biso   1.000  O
  O29      1.0000 0.12281  0.89307  0.88607  Biso   1.000  O
  O30      1.0000 0.10693  0.62281  0.13607  Biso   1.000  O
  O31      1.0000 0.37719  0.60693  0.38607  Biso   1.000  O
  O32      1.0000 0.39307  0.87719  0.63607  Biso   1.000  O
  O33      1.0000 0.75000  0.24796  0.87500  Biso   1.000  O
  O34      1.0000 0.75204  0.25000  0.12500  Biso   1.000  O
  O35      1.0000 0.75000  0.25204  0.37500  Biso   1.000  O
  O36      1.0000 0.74796  0.25000  0.62500  Biso   1.000  O
  O37      1.0000 0.25000  0.74796  0.37500  Biso   1.000  O
  O38      1.0000 0.25204  0.75000  0.62500  Biso   1.000  O
  O39      1.0000 0.25000  0.75204  0.87500  Biso   1.000  O
  O40      1.0000 0.24796  0.75000  0.12500  Biso   1.000  O
  C1       1.0000 0.63912  0.08314  0.95980  Biso   1.000  C
  C2       1.0000 0.91686  0.13912  0.20980  Biso   1.000  C
  C3       1.0000 0.86088  0.41686  0.45980  Biso   1.000  C
  C4       1.0000 0.58314  0.36088  0.70980  Biso   1.000  C
  C5       1.0000 0.63912  0.41686  0.29020  Biso   1.000  C
  C6       1.0000 0.58314  0.13912  0.54020  Biso   1.000  C
  C7       1.0000 0.86088  0.08314  0.79020  Biso   1.000  C
  C8       1.0000 0.91686  0.36088  0.04020  Biso   1.000  C
  C9       1.0000 0.13912  0.58314  0.45980  Biso   1.000  C
  C10      1.0000 0.41686  0.63912  0.70980  Biso   1.000  C
  C11      1.0000 0.36088  0.91686  0.95980  Biso   1.000  C
  C12      1.0000 0.08314  0.86088  0.20980  Biso   1.000  C
  C13      1.0000 0.13912  0.91686  0.79020  Biso   1.000  C
  C14      1.0000 0.08314  0.63912  0.04020  Biso   1.000  C
  C15      1.0000 0.36088  0.58314  0.29020  Biso   1.000  C
  C16      1.0000 0.41686  0.86088  0.54020  Biso   1.000  C
  C17      1.0000 0.50000  0.00000  0.18900  Biso   1.000  C
  C18      1.0000 0.00000  0.00000  0.43900  Biso   1.000  C
  C19      1.0000 0.00000  0.50000  0.68900  Biso   1.000  C
  C20      1.0000 0.50000  0.50000  0.93900  Biso   1.000  C
  C21      1.0000 0.50000  0.50000  0.06100  Biso   1.000  C
  C22      1.0000 0.50000  0.00000  0.31100  Biso   1.000  C
  C23      1.0000 0.00000  0.00000  0.56100  Biso   1.000  C
  C24      1.0000 0.00000  0.50000  0.81100  Biso   1.000  C
  C25      1.0000 0.50000  0.00000  0.96310  Biso   1.000  C
  C26      1.0000 0.00000  0.00000  0.21310  Biso   1.000  C
  C27      1.0000 0.00000  0.50000  0.46310  Biso   1.000  C
  C28      1.0000 0.50000  0.50000  0.71310  Biso   1.000  C
  C29      1.0000 0.50000  0.50000  0.28690  Biso   1.000  C
  C30      1.0000 0.50000  0.00000  0.53690  Biso   1.000  C
  C31      1.0000 0.00000  0.00000  0.78690  Biso   1.000  C
  C32      1.0000 0.00000  0.50000  0.03690  Biso   1.000  C
  H1       1.0000 0.50000  0.00000  0.88640  Biso   1.000  H
  H2       1.0000 0.00000  0.00000  0.13640  Biso   1.000  H
  H3       1.0000 0.00000  0.50000  0.38640  Biso   1.000  H
  H4       1.0000 0.50000  0.50000  0.63640  Biso   1.000  H
  H5       1.0000 0.50000  0.50000  0.36360  Biso   1.000  H
  H6       1.0000 0.50000  0.00000  0.61360  Biso   1.000  H
  H7       1.0000 0.00000  0.00000  0.86360  Biso   1.000  H
  H8       1.0000 0.00000  0.50000  0.11360  Biso   1.000  H
  C33      1.0000 0.56916  0.03608  0.13267  Biso   1.000  C
  C34      1.0000 0.96392  0.06916  0.38267  Biso   1.000  C
  C35      1.0000 0.93084  0.46392  0.63267  Biso   1.000  C
  C36      1.0000 0.53608  0.43084  0.88267  Biso   1.000  C
  C37      1.0000 0.56916  0.46392  0.11733  Biso   1.000  C
  C38      1.0000 0.53608  0.06916  0.36733  Biso   1.000  C
  C39      1.0000 0.93084  0.03608  0.61733  Biso   1.000  C
  C40      1.0000 0.96392  0.43084  0.86733  Biso   1.000  C
  C41      1.0000 0.06916  0.53608  0.63267  Biso   1.000  C
  C42      1.0000 0.46392  0.56916  0.88267  Biso   1.000  C
  C43      1.0000 0.43084  0.96392  0.13267  Biso   1.000  C
  C44      1.0000 0.03608  0.93084  0.38267  Biso   1.000  C
  C45      1.0000 0.06916  0.96392  0.61733  Biso   1.000  C
  C46      1.0000 0.03608  0.56916  0.86733  Biso   1.000  C
  C47      1.0000 0.43084  0.53608  0.11733  Biso   1.000  C
  C48      1.0000 0.46392  0.93084  0.36733  Biso   1.000  C
  H9       1.0000 0.61720  0.05990  0.17110  Biso   1.000  H
  H10      1.0000 0.94010  0.11720  0.42110  Biso   1.000  H
  H11      1.0000 0.88280  0.44010  0.67110  Biso   1.000  H
  H12      1.0000 0.55990  0.38280  0.92110  Biso   1.000  H
  H13      1.0000 0.61720  0.44010  0.07890  Biso   1.000  H
  H14      1.0000 0.55990  0.11720  0.32890  Biso   1.000  H
  H15      1.0000 0.88280  0.05990  0.57890  Biso   1.000  H
  H16      1.0000 0.94010  0.38280  0.82890  Biso   1.000  H
  H17      1.0000 0.11720  0.55990  0.67110  Biso   1.000  H
  H18      1.0000 0.44010  0.61720  0.92110  Biso   1.000  H
  H19      1.0000 0.38280  0.94010  0.17110  Biso   1.000  H
  H20      1.0000 0.05990  0.88280  0.42110  Biso   1.000  H
  H21      1.0000 0.11720  0.94010  0.57890  Biso   1.000  H
  H22      1.0000 0.05990  0.61720  0.82890  Biso   1.000  H
  H23      1.0000 0.38280  0.55990  0.07890  Biso   1.000  H
  H24      1.0000 0.44010  0.88280  0.32890  Biso   1.000  H
  C49      1.0000 0.56888  0.03775  0.01954  Biso   1.000  C
  C50      1.0000 0.96225  0.06888  0.26954  Biso   1.000  C
  C51      1.0000 0.93112  0.46225  0.51954  Biso   1.000  C
  C52      1.0000 0.53775  0.43112  0.76954  Biso   1.000  C
  C53      1.0000 0.56888  0.46225  0.23046  Biso   1.000  C
  C54      1.0000 0.53775  0.06888  0.48046  Biso   1.000  C
  C55      1.0000 0.93112  0.03775  0.73046  Biso   1.000  C
  C56      1.0000 0.96225  0.43112  0.98046  Biso   1.000  C
  C57      1.0000 0.06888  0.53775  0.51954  Biso   1.000  C
  C58      1.0000 0.46225  0.56888  0.76954  Biso   1.000  C
  C59      1.0000 0.43112  0.96225  0.01954  Biso   1.000  C
  C60      1.0000 0.03775  0.93112  0.26954  Biso   1.000  C
  C61      1.0000 0.06888  0.96225  0.73046  Biso   1.000  C
  C62      1.0000 0.03775  0.56888  0.98046  Biso   1.000  C
  C63      1.0000 0.43112  0.53775  0.23046  Biso   1.000  C
  C64      1.0000 0.46225  0.93112  0.48046  Biso   1.000  C
  H25      1.0000 0.69810  0.26320  0.11090  Biso   1.000  H
  H26      1.0000 0.75870  0.20022  0.39234  Biso   1.000  H
  H27      1.0000 0.80292  0.25059  0.61444  Biso   1.000  H
  H28      1.0000 0.77500  0.29691  0.85453  Biso   1.000  H
  H29      1.0000 0.26430  0.80414  0.35874  Biso   1.000  H
  H30      1.0000 0.19397  0.75067  0.61133  Biso   1.000  H
  H31      1.0000 0.19915  0.75860  0.90559  Biso   1.000  H
  H32      1.0000 0.30220  0.77305  0.13296  Biso   1.000  H
