data_image0
_cell_length_a       40
_cell_length_b       40
_cell_length_c       16.58
_cell_angle_alpha    90
_cell_angle_beta     90
_cell_angle_gamma    120

_symmetry_space_group_name_H-M    "P 1"
_symmetry_int_tables_number       1

loop_
  _symmetry_equiv_pos_as_xyz
  'x, y, z'

loop_
  _atom_site_label
  _atom_site_occupancy
  _atom_site_fract_x
  _atom_site_fract_y
  _atom_site_fract_z
  _atom_site_thermal_displace_type
  _atom_site_B_iso_or_equiv
  _atom_site_type_symbol
  C1       1.0000 0.48293  0.83613  0.34753  Biso   1.000  C
  C2       1.0000 0.52049  0.16444  0.34391  Biso   1.000  C
  C3       1.0000 0.35444  0.83625  0.34681  Biso   1.000  C
  C4       1.0000 0.64417  0.16343  0.34173  Biso   1.000  C
  C5       1.0000 0.51074  0.87475  0.33257  Biso   1.000  C
  C6       1.0000 0.49390  0.12561  0.32695  Biso   1.000  C
  C7       1.0000 0.36579  0.87492  0.33057  Biso   1.000  C
  C8       1.0000 0.63283  0.12480  0.32527  Biso   1.000  C
  C9       1.0000 0.53639  0.88333  0.26797  Biso   1.000  C
  C10      1.0000 0.46690  0.11689  0.26489  Biso   1.000  C
  C11      1.0000 0.34748  0.88319  0.26785  Biso   1.000  C
  C12      1.0000 0.65126  0.11655  0.26285  Biso   1.000  C
  C13      1.0000 0.53401  0.85397  0.21881  Biso   1.000  C
  C14      1.0000 0.46706  0.14631  0.21979  Biso   1.000  C
  C15      1.0000 0.31923  0.85363  0.22117  Biso   1.000  C
  C16      1.0000 0.67978  0.14620  0.21671  Biso   1.000  C
  C17      1.0000 0.50612  0.81508  0.23317  Biso   1.000  C
  C18      1.0000 0.49425  0.18531  0.23499  Biso   1.000  C
  C19      1.0000 0.30820  0.81474  0.23595  Biso   1.000  C
  C20      1.0000 0.69090  0.18506  0.23191  Biso   1.000  C
  C21      1.0000 0.48079  0.80680  0.29879  Biso   1.000  C
  C22      1.0000 0.52055  0.19377  0.29879  Biso   1.000  C
  C23      1.0000 0.32603  0.80672  0.30037  Biso   1.000  C
  C24      1.0000 0.67287  0.19308  0.29601  Biso   1.000  C
  H1       1.0000 0.46302  0.82970  0.39735  Biso   1.000  H
  H2       1.0000 0.54111  0.17096  0.39245  Biso   1.000  H
  H3       1.0000 0.36853  0.82995  0.39565  Biso   1.000  H
  H4       1.0000 0.62998  0.16961  0.39059  Biso   1.000  H
  H5       1.0000 0.55766  0.91332  0.25609  Biso   1.000  H
  H6       1.0000 0.44602  0.08688  0.25277  Biso   1.000  H
  H7       1.0000 0.35638  0.91318  0.25537  Biso   1.000  H
  H8       1.0000 0.64288  0.08664  0.25109  Biso   1.000  H
  H9       1.0000 0.55396  0.86124  0.16857  Biso   1.000  H
  H10      1.0000 0.44605  0.13904  0.17159  Biso   1.000  H
  H11      1.0000 0.30579  0.86073  0.17225  Biso   1.000  H
  H12      1.0000 0.69362  0.13923  0.16833  Biso   1.000  H
  H13      1.0000 0.45901  0.77703  0.31133  Biso   1.000  H
  H14      1.0000 0.54150  0.22368  0.31255  Biso   1.000  H
  H15      1.0000 0.31775  0.77692  0.31363  Biso   1.000  H
  H16      1.0000 0.68119  0.22280  0.30953  Biso   1.000  H
  C25      1.0000 0.52051  0.16335  0.68505  Biso   1.000  C
  C26      1.0000 0.48337  0.83616  0.68057  Biso   1.000  C
  C27      1.0000 0.64552  0.16453  0.68311  Biso   1.000  C
  C28      1.0000 0.35402  0.83581  0.67967  Biso   1.000  C
  C29      1.0000 0.49322  0.12475  0.70175  Biso   1.000  C
  C30      1.0000 0.51069  0.87481  0.69705  Biso   1.000  C
  C31      1.0000 0.63319  0.12572  0.70043  Biso   1.000  C
  C32      1.0000 0.36491  0.87447  0.69493  Biso   1.000  C
  C33      1.0000 0.46652  0.11649  0.76423  Biso   1.000  C
  C34      1.0000 0.53731  0.88296  0.75965  Biso   1.000  C
  C35      1.0000 0.65150  0.11700  0.76237  Biso   1.000  C
  C36      1.0000 0.34759  0.88286  0.75941  Biso   1.000  C
  C37      1.0000 0.46773  0.14620  0.81019  Biso   1.000  C
  C38      1.0000 0.53593  0.85330  0.80603  Biso   1.000  C
  C39      1.0000 0.68085  0.14642  0.80729  Biso   1.000  C
  C40      1.0000 0.32055  0.85341  0.80827  Biso   1.000  C
  C41      1.0000 0.49549  0.18500  0.79487  Biso   1.000  C
  C42      1.0000 0.50803  0.81444  0.79113  Biso   1.000  C
  C43      1.0000 0.69273  0.18542  0.79185  Biso   1.000  C
  C44      1.0000 0.30967  0.81457  0.79385  Biso   1.000  C
  C45      1.0000 0.52148  0.19302  0.73069  Biso   1.000  C
  C46      1.0000 0.48219  0.80650  0.72665  Biso   1.000  C
  C47      1.0000 0.67490  0.19389  0.72811  Biso   1.000  C
  C48      1.0000 0.32678  0.80642  0.72817  Biso   1.000  C
  H17      1.0000 0.54088  0.16950  0.63619  Biso   1.000  H
  H18      1.0000 0.46301  0.82998  0.63173  Biso   1.000  H
  H19      1.0000 0.63140  0.17099  0.63461  Biso   1.000  H
  H20      1.0000 0.36760  0.82948  0.62985  Biso   1.000  H
  H21      1.0000 0.44502  0.08661  0.77593  Biso   1.000  H
  H22      1.0000 0.55845  0.91291  0.77243  Biso   1.000  H
  H23      1.0000 0.64224  0.08696  0.77467  Biso   1.000  H
  H24      1.0000 0.35628  0.91283  0.77153  Biso   1.000  H
  H25      1.0000 0.44693  0.13923  0.85857  Biso   1.000  H
  H26      1.0000 0.55649  0.86029  0.85501  Biso   1.000  H
  H27      1.0000 0.69457  0.13915  0.85537  Biso   1.000  H
  H28      1.0000 0.30781  0.86060  0.85845  Biso   1.000  H
  H29      1.0000 0.54291  0.22276  0.71725  Biso   1.000  H
  H30      1.0000 0.46065  0.77675  0.71315  Biso   1.000  H
  H31      1.0000 0.68390  0.22377  0.71423  Biso   1.000  H
  H32      1.0000 0.31880  0.77667  0.71543  Biso   1.000  H
  Zr1      1.0000 0.53675  0.07215  0.51381  Biso   1.000  Zr
  Zr2      1.0000 0.54732  0.99905  0.41091  Biso   1.000  Zr
  Zr3      1.0000 0.54371  0.00065  0.62733  Biso   1.000  Zr
  Zr4      1.0000 0.45305  0.99896  0.61701  Biso   1.000  Zr
  Zr5      1.0000 0.46432  0.92729  0.51417  Biso   1.000  Zr
  Zr6      1.0000 0.45826  0.00059  0.40055  Biso   1.000  Zr
  O1       1.0000 0.52216  0.96924  0.51707  Biso   1.000  O
  O2       1.0000 0.48242  0.89577  0.59975  Biso   1.000  O
  O3       1.0000 0.41232  0.89577  0.59349  Biso   1.000  O
  O4       1.0000 0.48483  0.89589  0.43461  Biso   1.000  O
  O5       1.0000 0.53769  0.94057  0.36785  Biso   1.000  O
  O6       1.0000 0.53524  0.00108  0.27431  Biso   1.000  O
  O7       1.0000 0.59082  0.05870  0.35477  Biso   1.000  O
  O8       1.0000 0.47038  0.05951  0.35331  Biso   1.000  O
  O9       1.0000 0.58783  0.10382  0.43155  Biso   1.000  O
  O10      1.0000 0.51974  0.10419  0.42847  Biso   1.000  O
  O11      1.0000 0.58583  0.10423  0.59909  Biso   1.000  O
  O12      1.0000 0.51731  0.10374  0.59583  Biso   1.000  O
  O13      1.0000 0.46922  0.05864  0.67279  Biso   1.000  O
  O14      1.0000 0.59047  0.05959  0.67437  Biso   1.000  O
  O15      1.0000 0.51469  0.03056  0.60331  Biso   1.000  O
  O16      1.0000 0.57273  0.04000  0.51737  Biso   1.000  O
  O17      1.0000 0.59952  0.00039  0.43763  Biso   1.000  O
  O18      1.0000 0.59903  0.99824  0.59625  Biso   1.000  O
  O19      1.0000 0.40052  0.99820  0.43167  Biso   1.000  O
  O20      1.0000 0.51726  0.03059  0.42437  Biso   1.000  O
  O21      1.0000 0.48200  0.95957  0.38847  Biso   1.000  O
  O22      1.0000 0.40549  0.94072  0.36617  Biso   1.000  O
  O23      1.0000 0.46855  0.99929  0.27617  Biso   1.000  O
  O24      1.0000 0.41475  0.89577  0.42853  Biso   1.000  O
  O25      1.0000 0.53211  0.99938  0.75175  Biso   1.000  O
  O26      1.0000 0.46718  0.00111  0.75349  Biso   1.000  O
  O27      1.0000 0.47892  0.95957  0.63957  Biso   1.000  O
  O28      1.0000 0.53666  0.94072  0.66207  Biso   1.000  O
  O29      1.0000 0.40406  0.94037  0.66025  Biso   1.000  O
  O30      1.0000 0.40215  0.00025  0.59035  Biso   1.000  O
  O31      1.0000 0.46858  0.03991  0.51037  Biso   1.000  O
  O32      1.0000 0.44840  0.96918  0.51097  Biso   1.000  O
  C49      1.0000 0.39748  0.90622  0.37889  Biso   1.000  C
  C50      1.0000 0.51135  0.90608  0.38227  Biso   1.000  C
  C51      1.0000 0.51020  0.90619  0.64921  Biso   1.000  C
  C52      1.0000 0.60076  0.09412  0.65465  Biso   1.000  C
  C53      1.0000 0.49318  0.09330  0.65337  Biso   1.000  C
  C54      1.0000 0.49468  0.09405  0.37291  Biso   1.000  C
  C55      1.0000 0.39583  0.90587  0.64565  Biso   1.000  C
  C56      1.0000 0.60149  0.09337  0.37389  Biso   1.000  C
  H33      1.0000 0.45755  0.05650  0.51115  Biso   1.000  H
  H34      1.0000 0.47361  0.94346  0.34107  Biso   1.000  H
  H35      1.0000 0.59312  0.97264  0.61225  Biso   1.000  H
  H36      1.0000 0.60183  0.99926  0.53535  Biso   1.000  H
  H37      1.0000 0.37982  0.97842  0.61339  Biso   1.000  H
  H38      1.0000 0.49210  0.00036  0.75893  Biso   1.000  H
  H39      1.0000 0.55255  0.02137  0.77907  Biso   1.000  H
  H40      1.0000 0.47325  0.02669  0.77027  Biso   1.000  H
  H41      1.0000 0.60035  0.05658  0.51647  Biso   1.000  H
  H42      1.0000 0.47121  0.94346  0.68697  Biso   1.000  H
  H43      1.0000 0.60011  0.97862  0.41447  Biso   1.000  H
  H44      1.0000 0.39870  0.99915  0.49257  Biso   1.000  H
  H45      1.0000 0.38081  0.97258  0.41575  Biso   1.000  H
  H46      1.0000 0.55477  0.02666  0.25753  Biso   1.000  H
  H47      1.0000 0.47012  0.02129  0.24885  Biso   1.000  H
  H48      1.0000 0.50958  0.00030  0.26893  Biso   1.000  H
  C57      1.0000 0.16446  0.64591  0.34753  Biso   1.000  C
  C58      1.0000 0.83591  0.35517  0.34391  Biso   1.000  C
  C59      1.0000 0.16435  0.51741  0.34681  Biso   1.000  C
  C60      1.0000 0.83693  0.47975  0.34173  Biso   1.000  C
  C61      1.0000 0.12584  0.63510  0.33257  Biso   1.000  C
  C62      1.0000 0.87476  0.36740  0.32695  Biso   1.000  C
  C63      1.0000 0.12564  0.49010  0.33057  Biso   1.000  C
  C64      1.0000 0.87559  0.50707  0.32527  Biso   1.000  C
  C65      1.0000 0.11724  0.65215  0.26797  Biso   1.000  C
  C66      1.0000 0.88350  0.34916  0.26489  Biso   1.000  C
  C67      1.0000 0.11738  0.46354  0.26785  Biso   1.000  C
  C68      1.0000 0.88385  0.53372  0.26285  Biso   1.000  C
  C69      1.0000 0.14664  0.67914  0.21881  Biso   1.000  C
  C70      1.0000 0.85404  0.31990  0.21979  Biso   1.000  C
  C71      1.0000 0.14697  0.46487  0.22117  Biso   1.000  C
  C72      1.0000 0.85419  0.53259  0.21671  Biso   1.000  C
  C73      1.0000 0.18554  0.69015  0.23317  Biso   1.000  C
  C74      1.0000 0.81503  0.30809  0.23499  Biso   1.000  C
  C75      1.0000 0.18588  0.49273  0.23595  Biso   1.000  C
  C76      1.0000 0.81529  0.50485  0.23191  Biso   1.000  C
  C77      1.0000 0.19383  0.67312  0.29879  Biso   1.000  C
  C78      1.0000 0.80658  0.32590  0.29879  Biso   1.000  C
  C79      1.0000 0.19390  0.51855  0.30037  Biso   1.000  C
  C80      1.0000 0.80726  0.47880  0.29601  Biso   1.000  C
  H49      1.0000 0.17091  0.63246  0.39735  Biso   1.000  H
  H50      1.0000 0.82938  0.36926  0.39245  Biso   1.000  H
  H51      1.0000 0.17065  0.53779  0.39565  Biso   1.000  H
  H52      1.0000 0.83075  0.45941  0.39059  Biso   1.000  H
  H53      1.0000 0.08722  0.64341  0.25609  Biso   1.000  H
  H54      1.0000 0.91354  0.35832  0.25277  Biso   1.000  H
  H55      1.0000 0.08736  0.44244  0.25537  Biso   1.000  H
  H56      1.0000 0.91379  0.55524  0.25109  Biso   1.000  H
  H57      1.0000 0.13937  0.69182  0.16857  Biso   1.000  H
  H58      1.0000 0.86135  0.30621  0.17159  Biso   1.000  H
  H59      1.0000 0.13986  0.44431  0.17225  Biso   1.000  H
  H60      1.0000 0.86116  0.55338  0.16833  Biso   1.000  H
  H61      1.0000 0.22360  0.68111  0.31133  Biso   1.000  H
  H62      1.0000 0.77662  0.31692  0.31255  Biso   1.000  H
  H63      1.0000 0.22370  0.54006  0.31363  Biso   1.000  H
  H64      1.0000 0.77749  0.45735  0.30953  Biso   1.000  H
  C81      1.0000 0.83699  0.35626  0.68505  Biso   1.000  C
  C82      1.0000 0.16444  0.64633  0.68057  Biso   1.000  C
  C83      1.0000 0.83584  0.48002  0.68311  Biso   1.000  C
  C84      1.0000 0.16477  0.51744  0.67967  Biso   1.000  C
  C85      1.0000 0.87564  0.36760  0.70175  Biso   1.000  C
  C86      1.0000 0.12576  0.63498  0.69705  Biso   1.000  C
  C87      1.0000 0.87465  0.50649  0.70043  Biso   1.000  C
  C88      1.0000 0.12610  0.48966  0.69493  Biso   1.000  C
  C89      1.0000 0.88387  0.34916  0.76423  Biso   1.000  C
  C90      1.0000 0.11760  0.65343  0.75965  Biso   1.000  C
  C91      1.0000 0.88339  0.53351  0.76237  Biso   1.000  C
  C92      1.0000 0.11768  0.46394  0.75941  Biso   1.000  C
  C93      1.0000 0.85418  0.32066  0.81019  Biso   1.000  C
  C94      1.0000 0.14730  0.68171  0.80603  Biso   1.000  C
  C95      1.0000 0.85395  0.53342  0.80729  Biso   1.000  C
  C96      1.0000 0.14718  0.46640  0.80827  Biso   1.000  C
  C97      1.0000 0.81532  0.30962  0.79487  Biso   1.000  C
  C98      1.0000 0.18617  0.69271  0.79113  Biso   1.000  C
  C99      1.0000 0.81491  0.50629  0.79185  Biso   1.000  C
  C100     1.0000 0.18603  0.49434  0.79385  Biso   1.000  C
  C101     1.0000 0.80732  0.32757  0.73069  Biso   1.000  C
  C102     1.0000 0.19413  0.67482  0.72665  Biso   1.000  C
  C103     1.0000 0.80647  0.48002  0.72811  Biso   1.000  C
  C104     1.0000 0.19421  0.51963  0.72817  Biso   1.000  C
  H65      1.0000 0.83083  0.37047  0.63619  Biso   1.000  H
  H66      1.0000 0.17061  0.63215  0.63179  Biso   1.000  H
  H67      1.0000 0.82935  0.45941  0.63461  Biso   1.000  H
  H68      1.0000 0.17112  0.53733  0.62985  Biso   1.000  H
  H69      1.0000 0.91379  0.35757  0.77593  Biso   1.000  H
  H70      1.0000 0.08763  0.64463  0.77243  Biso   1.000  H
  H71      1.0000 0.91346  0.55429  0.77467  Biso   1.000  H
  H72      1.0000 0.08770  0.44267  0.77153  Biso   1.000  H
  H73      1.0000 0.86112  0.30684  0.85857  Biso   1.000  H
  H74      1.0000 0.14028  0.69526  0.85501  Biso   1.000  H
  H75      1.0000 0.86121  0.55439  0.85537  Biso   1.000  H
  H76      1.0000 0.13995  0.44645  0.85845  Biso   1.000  H
  H77      1.0000 0.77754  0.31926  0.71725  Biso   1.000  H
  H78      1.0000 0.22389  0.68304  0.71315  Biso   1.000  H
  H79      1.0000 0.77654  0.45911  0.71423  Biso   1.000  H
  H80      1.0000 0.22397  0.54140  0.71543  Biso   1.000  H
  Zr7      1.0000 0.92828  0.46370  0.51381  Biso   1.000  Zr
  Zr8      1.0000 0.00142  0.54733  0.41091  Biso   1.000  Zr
  Zr9      1.0000 0.99982  0.54215  0.62733  Biso   1.000  Zr
  Zr10     1.0000 0.00151  0.45326  0.61701  Biso   1.000  Zr
  Zr11     1.0000 0.07324  0.53616  0.51417  Biso   1.000  Zr
  Zr12     1.0000 0.99988  0.45681  0.40055  Biso   1.000  Zr
  O33      1.0000 0.03125  0.55205  0.51707  Biso   1.000  O
  O34      1.0000 0.10478  0.58579  0.59975  Biso   1.000  O
  O35      1.0000 0.10477  0.51573  0.59349  Biso   1.000  O
  O36      1.0000 0.10467  0.58807  0.43461  Biso   1.000  O
  O37      1.0000 0.05997  0.59624  0.36785  Biso   1.000  O
  O38      1.0000 0.99940  0.53326  0.27431  Biso   1.000  O
  O39      1.0000 0.94172  0.53117  0.35477  Biso   1.000  O
  O40      1.0000 0.94092  0.41002  0.35331  Biso   1.000  O
  O41      1.0000 0.89659  0.48308  0.43155  Biso   1.000  O
  O42      1.0000 0.89621  0.41467  0.42847  Biso   1.000  O
  O43      1.0000 0.89618  0.48066  0.59909  Biso   1.000  O
  O44      1.0000 0.89666  0.41267  0.59583  Biso   1.000  O
  O45      1.0000 0.94180  0.40972  0.67279  Biso   1.000  O
  O46      1.0000 0.94085  0.52994  0.67437  Biso   1.000  O
  O47      1.0000 0.96988  0.48325  0.60331  Biso   1.000  O
  O48      1.0000 0.96045  0.53181  0.51737  Biso   1.000  O
  O49      1.0000 0.00009  0.59818  0.43763  Biso   1.000  O
  O50      1.0000 0.00221  0.59981  0.59625  Biso   1.000  O
  O51      1.0000 0.00227  0.40153  0.43167  Biso   1.000  O
  O52      1.0000 0.96988  0.48579  0.42437  Biso   1.000  O
  O53      1.0000 0.04094  0.52156  0.38847  Biso   1.000  O
  O54      1.0000 0.05978  0.46397  0.36617  Biso   1.000  O
  O55      1.0000 0.00117  0.46838  0.27617  Biso   1.000  O
  O56      1.0000 0.10478  0.51816  0.42853  Biso   1.000  O
  O57      1.0000 0.00110  0.53184  0.75175  Biso   1.000  O
  O58      1.0000 0.99936  0.46520  0.75349  Biso   1.000  O
  O59      1.0000 0.04093  0.51850  0.63957  Biso   1.000  O
  O60      1.0000 0.05981  0.59502  0.66207  Biso   1.000  O
  O61      1.0000 0.06016  0.46287  0.66025  Biso   1.000  O
  O62      1.0000 0.00022  0.40110  0.59035  Biso   1.000  O
  O63      1.0000 0.96052  0.42780  0.51037  Biso   1.000  O
  O64      1.0000 0.03131  0.47838  0.51097  Biso   1.000  O
  C105     1.0000 0.09433  0.49047  0.37889  Biso   1.000  C
  C106     1.0000 0.09448  0.60440  0.38227  Biso   1.000  C
  C107     1.0000 0.09437  0.60314  0.64921  Biso   1.000  C
  C108     1.0000 0.90629  0.50571  0.65465  Biso   1.000  C
  C109     1.0000 0.90712  0.39902  0.65337  Biso   1.000  C
  C110     1.0000 0.90635  0.39974  0.37291  Biso   1.000  C
  C111     1.0000 0.09467  0.48915  0.64565  Biso   1.000  C
  C112     1.0000 0.90703  0.50716  0.37389  Biso   1.000  C
  H81      1.0000 0.94393  0.40019  0.51115  Biso   1.000  H
  H82      1.0000 0.05707  0.52930  0.34107  Biso   1.000  H
  H83      1.0000 0.02787  0.61953  0.61225  Biso   1.000  H
  H84      1.0000 0.00123  0.60161  0.53535  Biso   1.000  H
  H85      1.0000 0.02207  0.40061  0.61339  Biso   1.000  H
  H86      1.0000 0.00010  0.49085  0.75893  Biso   1.000  H
  H87      1.0000 0.97910  0.53028  0.77907  Biso   1.000  H
  H88      1.0000 0.97378  0.44570  0.77027  Biso   1.000  H
  H89      1.0000 0.94384  0.54281  0.51647  Biso   1.000  H
  H90      1.0000 0.05707  0.52690  0.68697  Biso   1.000  H
  H91      1.0000 0.02189  0.62055  0.41453  Biso   1.000  H
  H92      1.0000 0.00133  0.39876  0.49257  Biso   1.000  H
  H93      1.0000 0.02792  0.40745  0.41575  Biso   1.000  H
  H94      1.0000 0.97382  0.52722  0.25753  Biso   1.000  H
  H95      1.0000 0.97917  0.44798  0.24885  Biso   1.000  H
  H96      1.0000 0.00017  0.50840  0.26893  Biso   1.000  H
  C113     1.0000 0.35446  0.51757  0.34753  Biso   1.000  C
  C114     1.0000 0.64539  0.47997  0.34391  Biso   1.000  C
  C115     1.0000 0.48309  0.64594  0.34681  Biso   1.000  C
  C116     1.0000 0.52068  0.35638  0.34173  Biso   1.000  C
  C117     1.0000 0.36530  0.48980  0.33257  Biso   1.000  C
  C118     1.0000 0.63314  0.50651  0.32695  Biso   1.000  C
  C119     1.0000 0.51041  0.63460  0.33057  Biso   1.000  C
  C120     1.0000 0.49340  0.36776  0.32527  Biso   1.000  C
  C121     1.0000 0.34821  0.46415  0.26797  Biso   1.000  C
  C122     1.0000 0.65142  0.53351  0.26489  Biso   1.000  C
  C123     1.0000 0.53699  0.65288  0.26785  Biso   1.000  C
  C124     1.0000 0.46668  0.34930  0.26285  Biso   1.000  C
  C125     1.0000 0.32121  0.46654  0.21881  Biso   1.000  C
  C126     1.0000 0.68068  0.53334  0.21979  Biso   1.000  C
  C127     1.0000 0.53566  0.68111  0.22117  Biso   1.000  C
  C128     1.0000 0.46783  0.32082  0.21671  Biso   1.000  C
  C129     1.0000 0.31022  0.49443  0.23317  Biso   1.000  C
  C130     1.0000 0.69252  0.50615  0.23499  Biso   1.000  C
  C131     1.0000 0.50782  0.69217  0.23595  Biso   1.000  C
  C132     1.0000 0.49558  0.30968  0.23191  Biso   1.000  C
  C133     1.0000 0.32727  0.51975  0.29879  Biso   1.000  C
  C134     1.0000 0.67468  0.47991  0.29879  Biso   1.000  C
  C135     1.0000 0.48194  0.67435  0.30037  Biso   1.000  C
  C136     1.0000 0.52164  0.32768  0.29601  Biso   1.000  C
  H97      1.0000 0.36794  0.53746  0.39735  Biso   1.000  H
  H98      1.0000 0.63130  0.45935  0.39245  Biso   1.000  H
  H99      1.0000 0.46272  0.63190  0.39565  Biso   1.000  H
  H100     1.0000 0.54106  0.37055  0.39059  Biso   1.000  H
  H101     1.0000 0.35694  0.44290  0.25609  Biso   1.000  H
  H102     1.0000 0.64225  0.55439  0.25277  Biso   1.000  H
  H103     1.0000 0.55811  0.64399  0.25537  Biso   1.000  H
  H104     1.0000 0.44514  0.35771  0.25109  Biso   1.000  H
  H105     1.0000 0.30853  0.44659  0.16857  Biso   1.000  H
  H106     1.0000 0.69441  0.55432  0.17159  Biso   1.000  H
  H107     1.0000 0.55623  0.69457  0.17225  Biso   1.000  H
  H108     1.0000 0.44703  0.30698  0.16833  Biso   1.000  H
  H109     1.0000 0.31926  0.54147  0.31133  Biso   1.000  H
  H110     1.0000 0.68366  0.45894  0.31255  Biso   1.000  H
  H111     1.0000 0.46040  0.68262  0.31363  Biso   1.000  H
  H112     1.0000 0.54311  0.31940  0.30953  Biso   1.000  H
  C137     1.0000 0.64430  0.47994  0.68505  Biso   1.000  C
  C138     1.0000 0.35406  0.51715  0.68057  Biso   1.000  C
  C139     1.0000 0.52044  0.35506  0.68311  Biso   1.000  C
  C140     1.0000 0.48307  0.64635  0.67967  Biso   1.000  C
  C141     1.0000 0.63296  0.50721  0.70175  Biso   1.000  C
  C142     1.0000 0.36539  0.48983  0.69705  Biso   1.000  C
  C143     1.0000 0.49396  0.36737  0.70043  Biso   1.000  C
  C144     1.0000 0.51086  0.63549  0.69493  Biso   1.000  C
  C145     1.0000 0.65141  0.53389  0.76423  Biso   1.000  C
  C146     1.0000 0.34694  0.46325  0.75965  Biso   1.000  C
  C147     1.0000 0.46691  0.34907  0.76237  Biso   1.000  C
  C148     1.0000 0.53660  0.65279  0.75941  Biso   1.000  C
  C149     1.0000 0.67991  0.53270  0.81019  Biso   1.000  C
  C150     1.0000 0.31863  0.46464  0.80603  Biso   1.000  C
  C151     1.0000 0.46700  0.31974  0.80729  Biso   1.000  C
  C152     1.0000 0.53416  0.67981  0.80827  Biso   1.000  C
  C153     1.0000 0.69099  0.50493  0.79487  Biso   1.000  C
  C154     1.0000 0.30765  0.49248  0.79113  Biso   1.000  C
  C155     1.0000 0.49412  0.30785  0.79185  Biso   1.000  C
  C156     1.0000 0.50618  0.69070  0.79385  Biso   1.000  C
  C157     1.0000 0.67298  0.47896  0.73069  Biso   1.000  C
  C158     1.0000 0.32556  0.51833  0.72665  Biso   1.000  C
  C159     1.0000 0.52042  0.32567  0.72811  Biso   1.000  C
  C160     1.0000 0.48089  0.67360  0.72817  Biso   1.000  C
  H113     1.0000 0.63006  0.45958  0.63619  Biso   1.000  H
  H114     1.0000 0.36825  0.53749  0.63173  Biso   1.000  H
  H115     1.0000 0.54105  0.36913  0.63461  Biso   1.000  H
  H116     1.0000 0.46314  0.63279  0.62985  Biso   1.000  H
  H117     1.0000 0.64301  0.55540  0.77593  Biso   1.000  H
  H118     1.0000 0.35575  0.44211  0.77243  Biso   1.000  H
  H119     1.0000 0.44611  0.35835  0.77467  Biso   1.000  H
  H120     1.0000 0.55787  0.64410  0.77153  Biso   1.000  H
  H121     1.0000 0.69375  0.55346  0.85857  Biso   1.000  H
  H122     1.0000 0.30507  0.44408  0.85501  Biso   1.000  H
  H123     1.0000 0.44602  0.30606  0.85537  Biso   1.000  H
  H124     1.0000 0.55409  0.69254  0.85845  Biso   1.000  H
  H125     1.0000 0.68133  0.45754  0.71725  Biso   1.000  H
  H126     1.0000 0.31732  0.53986  0.71315  Biso   1.000  H
  H127     1.0000 0.54135  0.31668  0.71423  Biso   1.000  H
  H128     1.0000 0.45911  0.68157  0.71543  Biso   1.000  H
  Zr13     1.0000 0.53680  0.46373  0.51381  Biso   1.000  Zr
  Zr14     1.0000 0.45309  0.45320  0.41091  Biso   1.000  Zr
  Zr15     1.0000 0.45830  0.45681  0.62733  Biso   1.000  Zr
  Zr16     1.0000 0.54727  0.54737  0.61701  Biso   1.000  Zr
  Zr17     1.0000 0.46429  0.53613  0.51417  Biso   1.000  Zr
  Zr18     1.0000 0.54369  0.54217  0.40055  Biso   1.000  Zr
  O65      1.0000 0.44840  0.47832  0.51707  Biso   1.000  O
  O66      1.0000 0.41465  0.51807  0.59975  Biso   1.000  O
  O67      1.0000 0.48474  0.58810  0.59349  Biso   1.000  O
  O68      1.0000 0.41237  0.51567  0.43461  Biso   1.000  O
  O69      1.0000 0.40418  0.46284  0.36785  Biso   1.000  O
  O70      1.0000 0.46719  0.46527  0.27431  Biso   1.000  O
  O71      1.0000 0.46925  0.40969  0.35477  Biso   1.000  O
  O72      1.0000 0.59052  0.53005  0.35331  Biso   1.000  O
  O73      1.0000 0.51738  0.41267  0.43155  Biso   1.000  O
  O74      1.0000 0.58587  0.48072  0.42847  Biso   1.000  O
  O75      1.0000 0.51981  0.41470  0.59909  Biso   1.000  O
  O76      1.0000 0.58785  0.48317  0.59583  Biso   1.000  O
  O77      1.0000 0.59082  0.53120  0.67279  Biso   1.000  O
  O78      1.0000 0.47052  0.41008  0.67437  Biso   1.000  O
  O79      1.0000 0.51724  0.48579  0.60331  Biso   1.000  O
  O80      1.0000 0.46863  0.42780  0.51737  Biso   1.000  O
  O81      1.0000 0.40222  0.40104  0.43763  Biso   1.000  O
  O82      1.0000 0.40057  0.40153  0.59625  Biso   1.000  O
  O83      1.0000 0.59903  0.59984  0.43167  Biso   1.000  O
  O84      1.0000 0.51470  0.48323  0.42437  Biso   1.000  O
  O85      1.0000 0.47890  0.51847  0.38847  Biso   1.000  O
  O86      1.0000 0.53656  0.59491  0.36617  Biso   1.000  O
  O87      1.0000 0.53210  0.53189  0.27617  Biso   1.000  O
  O88      1.0000 0.48233  0.58568  0.42853  Biso   1.000  O
  O89      1.0000 0.46862  0.46838  0.75175  Biso   1.000  O
  O90      1.0000 0.53528  0.53326  0.75349  Biso   1.000  O
  O91      1.0000 0.48198  0.52153  0.63957  Biso   1.000  O
  O92      1.0000 0.40536  0.46386  0.66207  Biso   1.000  O
  O93      1.0000 0.53763  0.59635  0.66025  Biso   1.000  O
  O94      1.0000 0.59947  0.59824  0.59035  Biso   1.000  O
  O95      1.0000 0.57271  0.53187  0.51037  Biso   1.000  O
  O96      1.0000 0.52214  0.55205  0.51097  Biso   1.000  O
  C161     1.0000 0.51005  0.60293  0.37889  Biso   1.000  C
  C162     1.0000 0.39599  0.48915  0.38227  Biso   1.000  C
  C163     1.0000 0.39729  0.49033  0.64921  Biso   1.000  C
  C164     1.0000 0.49473  0.39977  0.65465  Biso   1.000  C
  C165     1.0000 0.60154  0.50726  0.65337  Biso   1.000  C
  C166     1.0000 0.60079  0.50576  0.37291  Biso   1.000  C
  C167     1.0000 0.51138  0.60459  0.64565  Biso   1.000  C
  C168     1.0000 0.49328  0.39908  0.37389  Biso   1.000  C
  H129     1.0000 0.60037  0.54290  0.51115  Biso   1.000  H
  H130     1.0000 0.47115  0.52685  0.34107  Biso   1.000  H
  H131     1.0000 0.38084  0.40745  0.61225  Biso   1.000  H
  H132     1.0000 0.39876  0.39873  0.53535  Biso   1.000  H
  H133     1.0000 0.59995  0.62055  0.61339  Biso   1.000  H
  H134     1.0000 0.50962  0.50836  0.75893  Biso   1.000  H
  H135     1.0000 0.47015  0.44795  0.77907  Biso   1.000  H
  H136     1.0000 0.55483  0.52721  0.77027  Biso   1.000  H
  H137     1.0000 0.45762  0.40019  0.51647  Biso   1.000  H
  H138     1.0000 0.47357  0.52927  0.68697  Biso   1.000  H
  H139     1.0000 0.37984  0.40046  0.41453  Biso   1.000  H
  H140     1.0000 0.60180  0.60170  0.49257  Biso   1.000  H
  H141     1.0000 0.59313  0.61956  0.41575  Biso   1.000  H
  H142     1.0000 0.47322  0.44573  0.25753  Biso   1.000  H
  H143     1.0000 0.55253  0.53034  0.24885  Biso   1.000  H
  H144     1.0000 0.49207  0.49091  0.26893  Biso   1.000  H
  H145     1.0000 0.83176  0.49861  0.08559  Biso   1.000  H
  H146     1.0000 0.33301  0.83102  0.08559  Biso   1.000  H
  H147     1.0000 0.50187  0.33228  0.08559  Biso   1.000  H
  H148     1.0000 0.16946  0.50113  0.08559  Biso   1.000  H
  H149     1.0000 0.66821  0.16872  0.08559  Biso   1.000  H
  H150     1.0000 0.49935  0.66746  0.08559  Biso   1.000  H
  C169     1.0000 0.78592  0.50755  0.19143  Biso   1.000  C
  C170     1.0000 0.78563  0.50924  0.10423  Biso   1.000  C
  C171     1.0000 0.81191  0.50504  0.05801  Biso   1.000  C
  H151     1.0000 0.75277  0.50420  0.29541  Biso   1.000  H
  C172     1.0000 0.75326  0.50514  0.23099  Biso   1.000  C
  C173     1.0000 0.75598  0.51062  0.06079  Biso   1.000  C
  C174     1.0000 0.27822  0.78518  0.19143  Biso   1.000  C
  C175     1.0000 0.27625  0.78489  0.10423  Biso   1.000  C
  C176     1.0000 0.30673  0.81119  0.05801  Biso   1.000  C
  H152     1.0000 0.24843  0.75204  0.29541  Biso   1.000  H
  C177     1.0000 0.24799  0.75249  0.23099  Biso   1.000  C
  C178     1.0000 0.24523  0.75525  0.06079  Biso   1.000  C
  C179     1.0000 0.49291  0.27748  0.19143  Biso   1.000  C
  C180     1.0000 0.49122  0.27550  0.10423  Biso   1.000  C
  C181     1.0000 0.49541  0.30598  0.05801  Biso   1.000  C
  H153     1.0000 0.49627  0.24770  0.29541  Biso   1.000  H
  C182     1.0000 0.49534  0.24723  0.23099  Biso   1.000  C
  C183     1.0000 0.48986  0.24449  0.06079  Biso   1.000  C
  C184     1.0000 0.21530  0.49217  0.19143  Biso   1.000  C
  C185     1.0000 0.21559  0.49050  0.10423  Biso   1.000  C
  C186     1.0000 0.18931  0.49468  0.05801  Biso   1.000  C
  H154     1.0000 0.24845  0.49553  0.29541  Biso   1.000  H
  C187     1.0000 0.24796  0.49460  0.23099  Biso   1.000  C
  C188     1.0000 0.24524  0.48911  0.06079  Biso   1.000  C
  C189     1.0000 0.72300  0.21456  0.19143  Biso   1.000  C
  C190     1.0000 0.72497  0.21485  0.10423  Biso   1.000  C
  C191     1.0000 0.69449  0.18854  0.05801  Biso   1.000  C
  H155     1.0000 0.75279  0.24770  0.29541  Biso   1.000  H
  C192     1.0000 0.75323  0.24723  0.23099  Biso   1.000  C
  C193     1.0000 0.75599  0.24449  0.06079  Biso   1.000  C
  C194     1.0000 0.50831  0.72224  0.19143  Biso   1.000  C
  C195     1.0000 0.51000  0.72424  0.10423  Biso   1.000  C
  C196     1.0000 0.50581  0.69376  0.05801  Biso   1.000  C
  H156     1.0000 0.50495  0.75204  0.29541  Biso   1.000  H
  C197     1.0000 0.50588  0.75249  0.23099  Biso   1.000  C
  C198     1.0000 0.51136  0.75525  0.06079  Biso   1.000  C
  C199     1.0000 0.50830  0.78518  0.19143  Biso   1.000  C
  C200     1.0000 0.51000  0.78489  0.10423  Biso   1.000  C
  C201     1.0000 0.50580  0.81119  0.05801  Biso   1.000  C
  C202     1.0000 0.72300  0.50755  0.19143  Biso   1.000  C
  C203     1.0000 0.72496  0.50924  0.10423  Biso   1.000  C
  C204     1.0000 0.69450  0.50504  0.05801  Biso   1.000  C
  C205     1.0000 0.21531  0.72224  0.19143  Biso   1.000  C
  C206     1.0000 0.21561  0.72424  0.10423  Biso   1.000  C
  C207     1.0000 0.18930  0.69376  0.05801  Biso   1.000  C
  C208     1.0000 0.49292  0.21456  0.19143  Biso   1.000  C
  C209     1.0000 0.49122  0.21485  0.10423  Biso   1.000  C
  C210     1.0000 0.49542  0.18854  0.05801  Biso   1.000  C
  C211     1.0000 0.27822  0.49217  0.19143  Biso   1.000  C
  C212     1.0000 0.27626  0.49050  0.10423  Biso   1.000  C
  C213     1.0000 0.30672  0.49468  0.05801  Biso   1.000  C
  C214     1.0000 0.78591  0.27748  0.19143  Biso   1.000  C
  C215     1.0000 0.78561  0.27550  0.10423  Biso   1.000  C
  C216     1.0000 0.81192  0.30598  0.05801  Biso   1.000  C
  H157     1.0000 0.49936  0.83102  0.08559  Biso   1.000  H
  H158     1.0000 0.66821  0.49861  0.08559  Biso   1.000  H
  H159     1.0000 0.16946  0.66746  0.08559  Biso   1.000  H
  H160     1.0000 0.50186  0.16872  0.08559  Biso   1.000  H
  H161     1.0000 0.33301  0.50113  0.08559  Biso   1.000  H
  H162     1.0000 0.83176  0.33228  0.08559  Biso   1.000  H
  C217     1.0000 0.49292  0.21456  0.83619  Biso   1.000  C
  C218     1.0000 0.49122  0.21485  0.92339  Biso   1.000  C
  C219     1.0000 0.49542  0.18854  0.96961  Biso   1.000  C
  H163     1.0000 0.49627  0.24770  0.73221  Biso   1.000  H
  C220     1.0000 0.49534  0.24723  0.79663  Biso   1.000  C
  C221     1.0000 0.48986  0.24449  0.96683  Biso   1.000  C
  C222     1.0000 0.27822  0.49217  0.83619  Biso   1.000  C
  C223     1.0000 0.27626  0.49050  0.92339  Biso   1.000  C
  C224     1.0000 0.30672  0.49468  0.96961  Biso   1.000  C
  H164     1.0000 0.24845  0.49553  0.73221  Biso   1.000  H
  C225     1.0000 0.24799  0.49459  0.79663  Biso   1.000  C
  C226     1.0000 0.24522  0.48911  0.96683  Biso   1.000  C
  C227     1.0000 0.78591  0.27748  0.83619  Biso   1.000  C
  C228     1.0000 0.78561  0.27550  0.92339  Biso   1.000  C
  C229     1.0000 0.81192  0.30598  0.96961  Biso   1.000  C
  H165     1.0000 0.75279  0.24770  0.73221  Biso   1.000  H
  C230     1.0000 0.75326  0.24723  0.79663  Biso   1.000  C
  C231     1.0000 0.75599  0.24449  0.96683  Biso   1.000  C
  C232     1.0000 0.50830  0.78518  0.83619  Biso   1.000  C
  C233     1.0000 0.51000  0.78489  0.92339  Biso   1.000  C
  C234     1.0000 0.50580  0.81118  0.96961  Biso   1.000  C
  H166     1.0000 0.50495  0.75204  0.73221  Biso   1.000  H
  C235     1.0000 0.50588  0.75249  0.79663  Biso   1.000  C
  C236     1.0000 0.51136  0.75524  0.96683  Biso   1.000  C
  C237     1.0000 0.72300  0.50755  0.83619  Biso   1.000  C
  C238     1.0000 0.72496  0.50924  0.92339  Biso   1.000  C
  C239     1.0000 0.69450  0.50504  0.96961  Biso   1.000  C
  H167     1.0000 0.75277  0.50420  0.73221  Biso   1.000  H
  C240     1.0000 0.75323  0.50514  0.79663  Biso   1.000  C
  C241     1.0000 0.75600  0.51061  0.96683  Biso   1.000  C
  C242     1.0000 0.21531  0.72224  0.83619  Biso   1.000  C
  C243     1.0000 0.21561  0.72424  0.92339  Biso   1.000  C
  C244     1.0000 0.18930  0.69376  0.96961  Biso   1.000  C
  H168     1.0000 0.24843  0.75204  0.73221  Biso   1.000  H
  C245     1.0000 0.24796  0.75249  0.79663  Biso   1.000  C
  C246     1.0000 0.24523  0.75524  0.96683  Biso   1.000  C
  H169     1.0000 0.50186  0.16872  0.94203  Biso   1.000  H
  H170     1.0000 0.33301  0.50113  0.94203  Biso   1.000  H
  H171     1.0000 0.83176  0.33227  0.94203  Biso   1.000  H
  H172     1.0000 0.49936  0.83102  0.94203  Biso   1.000  H
  H173     1.0000 0.66821  0.49860  0.94203  Biso   1.000  H
  H174     1.0000 0.16946  0.66746  0.94203  Biso   1.000  H
  H175     1.0000 0.16946  0.50113  0.94203  Biso   1.000  H
  H176     1.0000 0.66821  0.16872  0.94203  Biso   1.000  H
  H177     1.0000 0.49935  0.66746  0.94203  Biso   1.000  H
  H178     1.0000 0.83176  0.49860  0.94203  Biso   1.000  H
  H179     1.0000 0.33301  0.83102  0.94203  Biso   1.000  H
  H180     1.0000 0.50187  0.33227  0.94203  Biso   1.000  H
  C247     1.0000 0.21530  0.49217  0.83619  Biso   1.000  C
  C248     1.0000 0.21559  0.49050  0.92339  Biso   1.000  C
  C249     1.0000 0.18931  0.49468  0.96961  Biso   1.000  C
  C250     1.0000 0.72300  0.21456  0.83619  Biso   1.000  C
  C251     1.0000 0.72497  0.21485  0.92339  Biso   1.000  C
  C252     1.0000 0.69449  0.18854  0.96961  Biso   1.000  C
  C253     1.0000 0.50831  0.72224  0.83619  Biso   1.000  C
  C254     1.0000 0.51000  0.72424  0.92339  Biso   1.000  C
  C255     1.0000 0.50581  0.69376  0.96961  Biso   1.000  C
  C256     1.0000 0.78592  0.50755  0.83619  Biso   1.000  C
  C257     1.0000 0.78563  0.50924  0.92339  Biso   1.000  C
  C258     1.0000 0.81191  0.50504  0.96961  Biso   1.000  C
  C259     1.0000 0.27822  0.78518  0.83619  Biso   1.000  C
  C260     1.0000 0.27625  0.78489  0.92339  Biso   1.000  C
  C261     1.0000 0.30673  0.81118  0.96961  Biso   1.000  C
  C262     1.0000 0.49291  0.27748  0.83619  Biso   1.000  C
  C263     1.0000 0.49122  0.27550  0.92339  Biso   1.000  C
  C264     1.0000 0.49541  0.30598  0.96961  Biso   1.000  C
