data_image0
_cell_length_a       18.6273
_cell_length_b       18.6273
_cell_length_c       18.6273
_cell_angle_alpha    60
_cell_angle_beta     60
_cell_angle_gamma    60

_symmetry_space_group_name_H-M    "P 1"
_symmetry_int_tables_number       1

loop_
  _symmetry_equiv_pos_as_xyz
  'x, y, z'

loop_
  _atom_site_label
  _atom_site_occupancy
  _atom_site_fract_x
  _atom_site_fract_y
  _atom_site_fract_z
  _atom_site_thermal_displace_type
  _atom_site_B_iso_or_equiv
  _atom_site_type_symbol
  Cu1      1.0000 0.07057  0.50000  0.92943  Biso   1.000  Cu
  Cu2      1.0000 0.50000  0.07057  0.50000  Biso   1.000  Cu
  Cu3      1.0000 0.92943  0.50000  0.07057  Biso   1.000  Cu
  Cu4      1.0000 0.50000  0.92943  0.50000  Biso   1.000  Cu
  Cu5      1.0000 0.07057  0.92943  0.50000  Biso   1.000  Cu
  Cu6      1.0000 0.50000  0.50000  0.92943  Biso   1.000  Cu
  Cu7      1.0000 0.92943  0.07057  0.50000  Biso   1.000  Cu
  Cu8      1.0000 0.50000  0.50000  0.07057  Biso   1.000  Cu
  Cu9      1.0000 0.07057  0.50000  0.50000  Biso   1.000  Cu
  Cu10     1.0000 0.50000  0.92943  0.07057  Biso   1.000  Cu
  Cu11     1.0000 0.92943  0.50000  0.50000  Biso   1.000  Cu
  Cu12     1.0000 0.50000  0.07057  0.92943  Biso   1.000  Cu
  H1       1.0000 0.22800  0.22800  0.01160  Biso   1.000  H
  H2       1.0000 0.22800  0.22800  0.53240  Biso   1.000  H
  H3       1.0000 0.01160  0.53240  0.22800  Biso   1.000  H
  H4       1.0000 0.53240  0.01160  0.22800  Biso   1.000  H
  H5       1.0000 0.22800  0.01160  0.53240  Biso   1.000  H
  H6       1.0000 0.22800  0.53240  0.01160  Biso   1.000  H
  H7       1.0000 0.01160  0.22800  0.22800  Biso   1.000  H
  H8       1.0000 0.53240  0.22800  0.22800  Biso   1.000  H
  H9       1.0000 0.22800  0.53240  0.22800  Biso   1.000  H
  H10      1.0000 0.22800  0.01160  0.22800  Biso   1.000  H
  H11      1.0000 0.01160  0.22800  0.53240  Biso   1.000  H
  H12      1.0000 0.53240  0.22800  0.01160  Biso   1.000  H
  H13      1.0000 0.77200  0.77200  0.98840  Biso   1.000  H
  H14      1.0000 0.77200  0.77200  0.46760  Biso   1.000  H
  H15      1.0000 0.46760  0.98840  0.77200  Biso   1.000  H
  H16      1.0000 0.98840  0.46760  0.77200  Biso   1.000  H
  H17      1.0000 0.98840  0.77200  0.46760  Biso   1.000  H
  H18      1.0000 0.46760  0.77200  0.98840  Biso   1.000  H
  H19      1.0000 0.77200  0.98840  0.77200  Biso   1.000  H
  H20      1.0000 0.77200  0.46760  0.77200  Biso   1.000  H
  H21      1.0000 0.46760  0.77200  0.77200  Biso   1.000  H
  H22      1.0000 0.98840  0.77200  0.77200  Biso   1.000  H
  H23      1.0000 0.77200  0.98840  0.46760  Biso   1.000  H
  H24      1.0000 0.77200  0.46760  0.98840  Biso   1.000  H
  C1       1.0000 0.75700  0.46900  0.88700  Biso   1.000  C
  C2       1.0000 0.46900  0.75700  0.88700  Biso   1.000  C
  C3       1.0000 0.88700  0.88700  0.75700  Biso   1.000  C
  C4       1.0000 0.88700  0.88700  0.46900  Biso   1.000  C
  C5       1.0000 0.75700  0.88700  0.88700  Biso   1.000  C
  C6       1.0000 0.46900  0.88700  0.88700  Biso   1.000  C
  C7       1.0000 0.88700  0.75700  0.46900  Biso   1.000  C
  C8       1.0000 0.88700  0.46900  0.75700  Biso   1.000  C
  C9       1.0000 0.75700  0.88700  0.46900  Biso   1.000  C
  C10      1.0000 0.46900  0.88700  0.75700  Biso   1.000  C
  C11      1.0000 0.88700  0.46900  0.88700  Biso   1.000  C
  C12      1.0000 0.88700  0.75700  0.88700  Biso   1.000  C
  C13      1.0000 0.53100  0.24300  0.11300  Biso   1.000  C
  C14      1.0000 0.24300  0.53100  0.11300  Biso   1.000  C
  C15      1.0000 0.11300  0.11300  0.24300  Biso   1.000  C
  C16      1.0000 0.11300  0.11300  0.53100  Biso   1.000  C
  C17      1.0000 0.11300  0.24300  0.11300  Biso   1.000  C
  C18      1.0000 0.11300  0.53100  0.11300  Biso   1.000  C
  C19      1.0000 0.24300  0.11300  0.53100  Biso   1.000  C
  C20      1.0000 0.53100  0.11300  0.24300  Biso   1.000  C
  C21      1.0000 0.11300  0.24300  0.53100  Biso   1.000  C
  C22      1.0000 0.11300  0.53100  0.24300  Biso   1.000  C
  C23      1.0000 0.53100  0.11300  0.11300  Biso   1.000  C
  C24      1.0000 0.24300  0.11300  0.11300  Biso   1.000  C
  C25      1.0000 0.06870  0.06870  0.33770  Biso   1.000  C
  C26      1.0000 0.06870  0.06870  0.52490  Biso   1.000  C
  C27      1.0000 0.33770  0.52490  0.06870  Biso   1.000  C
  C28      1.0000 0.52490  0.33770  0.06870  Biso   1.000  C
  C29      1.0000 0.06870  0.33770  0.52490  Biso   1.000  C
  C30      1.0000 0.06870  0.52490  0.33770  Biso   1.000  C
  C31      1.0000 0.33770  0.06870  0.06870  Biso   1.000  C
  C32      1.0000 0.52490  0.06870  0.06870  Biso   1.000  C
  C33      1.0000 0.06870  0.52490  0.06870  Biso   1.000  C
  C34      1.0000 0.06870  0.33770  0.06870  Biso   1.000  C
  C35      1.0000 0.33770  0.06870  0.52490  Biso   1.000  C
  C36      1.0000 0.52490  0.06870  0.33770  Biso   1.000  C
  C37      1.0000 0.93130  0.93130  0.66230  Biso   1.000  C
  C38      1.0000 0.93130  0.93130  0.47510  Biso   1.000  C
  C39      1.0000 0.47510  0.66230  0.93130  Biso   1.000  C
  C40      1.0000 0.66230  0.47510  0.93130  Biso   1.000  C
  C41      1.0000 0.66230  0.93130  0.47510  Biso   1.000  C
  C42      1.0000 0.47510  0.93130  0.66230  Biso   1.000  C
  C43      1.0000 0.93130  0.66230  0.93130  Biso   1.000  C
  C44      1.0000 0.93130  0.47510  0.93130  Biso   1.000  C
  C45      1.0000 0.47510  0.93130  0.93130  Biso   1.000  C
  C46      1.0000 0.66230  0.93130  0.93130  Biso   1.000  C
  C47      1.0000 0.93130  0.66230  0.47510  Biso   1.000  C
  C48      1.0000 0.93130  0.47510  0.66230  Biso   1.000  C
  C49      1.0000 0.80060  0.46840  0.93040  Biso   1.000  C
  C50      1.0000 0.46840  0.80060  0.80060  Biso   1.000  C
  C51      1.0000 0.93040  0.80060  0.80060  Biso   1.000  C
  C52      1.0000 0.80060  0.93040  0.46840  Biso   1.000  C
  C53      1.0000 0.80060  0.93040  0.80060  Biso   1.000  C
  C54      1.0000 0.46840  0.80060  0.93040  Biso   1.000  C
  C55      1.0000 0.93040  0.80060  0.46840  Biso   1.000  C
  C56      1.0000 0.80060  0.46840  0.80060  Biso   1.000  C
  C57      1.0000 0.80060  0.80060  0.46840  Biso   1.000  C
  C58      1.0000 0.46840  0.93040  0.80060  Biso   1.000  C
  C59      1.0000 0.93040  0.46840  0.80060  Biso   1.000  C
  C60      1.0000 0.80060  0.80060  0.93040  Biso   1.000  C
  C61      1.0000 0.53160  0.19940  0.06960  Biso   1.000  C
  C62      1.0000 0.19940  0.53160  0.19940  Biso   1.000  C
  C63      1.0000 0.19940  0.06960  0.19940  Biso   1.000  C
  C64      1.0000 0.06960  0.19940  0.53160  Biso   1.000  C
  C65      1.0000 0.06960  0.19940  0.19940  Biso   1.000  C
  C66      1.0000 0.19940  0.53160  0.06960  Biso   1.000  C
  C67      1.0000 0.19940  0.06960  0.53160  Biso   1.000  C
  C68      1.0000 0.53160  0.19940  0.19940  Biso   1.000  C
  C69      1.0000 0.19940  0.19940  0.53160  Biso   1.000  C
  C70      1.0000 0.06960  0.53160  0.19940  Biso   1.000  C
  C71      1.0000 0.53160  0.06960  0.19940  Biso   1.000  C
  C72      1.0000 0.19940  0.19940  0.06960  Biso   1.000  C
  O1       1.0000 0.11201  0.99247  0.37425  Biso   1.000  O
  O2       1.0000 0.99247  0.11201  0.52127  Biso   1.000  O
  O3       1.0000 0.37425  0.52127  0.11201  Biso   1.000  O
  O4       1.0000 0.52127  0.37425  0.99247  Biso   1.000  O
  O5       1.0000 0.11201  0.37425  0.52127  Biso   1.000  O
  O6       1.0000 0.99247  0.52127  0.37425  Biso   1.000  O
  O7       1.0000 0.37425  0.11201  0.99247  Biso   1.000  O
  O8       1.0000 0.52127  0.99247  0.11201  Biso   1.000  O
  O9       1.0000 0.11201  0.52127  0.99247  Biso   1.000  O
  O10      1.0000 0.99247  0.37425  0.11201  Biso   1.000  O
  O11      1.0000 0.37425  0.99247  0.52127  Biso   1.000  O
  O12      1.0000 0.52127  0.11201  0.37425  Biso   1.000  O
  O13      1.0000 0.00753  0.88799  0.62575  Biso   1.000  O
  O14      1.0000 0.88799  0.00753  0.47873  Biso   1.000  O
  O15      1.0000 0.47873  0.62575  0.88799  Biso   1.000  O
  O16      1.0000 0.62575  0.47873  0.00753  Biso   1.000  O
  O17      1.0000 0.62575  0.88799  0.47873  Biso   1.000  O
  O18      1.0000 0.47873  0.00753  0.62575  Biso   1.000  O
  O19      1.0000 0.88799  0.62575  0.00753  Biso   1.000  O
  O20      1.0000 0.00753  0.47873  0.88799  Biso   1.000  O
  O21      1.0000 0.47873  0.88799  0.00753  Biso   1.000  O
  O22      1.0000 0.62575  0.00753  0.88799  Biso   1.000  O
  O23      1.0000 0.00753  0.62575  0.47873  Biso   1.000  O
  O24      1.0000 0.88799  0.47873  0.62575  Biso   1.000  O
  O25      1.0000 0.88799  0.00753  0.62575  Biso   1.000  O
  O26      1.0000 0.00753  0.88799  0.47873  Biso   1.000  O
  O27      1.0000 0.62575  0.47873  0.88799  Biso   1.000  O
  O28      1.0000 0.47873  0.62575  0.00753  Biso   1.000  O
  O29      1.0000 0.88799  0.62575  0.47873  Biso   1.000  O
  O30      1.0000 0.00753  0.47873  0.62575  Biso   1.000  O
  O31      1.0000 0.62575  0.88799  0.00753  Biso   1.000  O
  O32      1.0000 0.47873  0.00753  0.88799  Biso   1.000  O
  O33      1.0000 0.88799  0.47873  0.00753  Biso   1.000  O
  O34      1.0000 0.00753  0.62575  0.88799  Biso   1.000  O
  O35      1.0000 0.62575  0.00753  0.47873  Biso   1.000  O
  O36      1.0000 0.47873  0.88799  0.62575  Biso   1.000  O
  O37      1.0000 0.99247  0.11201  0.37425  Biso   1.000  O
  O38      1.0000 0.11201  0.99247  0.52127  Biso   1.000  O
  O39      1.0000 0.52127  0.37425  0.11201  Biso   1.000  O
  O40      1.0000 0.37425  0.52127  0.99247  Biso   1.000  O
  O41      1.0000 0.37425  0.11201  0.52127  Biso   1.000  O
  O42      1.0000 0.52127  0.99247  0.37425  Biso   1.000  O
  O43      1.0000 0.11201  0.37425  0.99247  Biso   1.000  O
  O44      1.0000 0.99247  0.52127  0.11201  Biso   1.000  O
  O45      1.0000 0.52127  0.11201  0.99247  Biso   1.000  O
  O46      1.0000 0.37425  0.99247  0.11201  Biso   1.000  O
  O47      1.0000 0.99247  0.37425  0.52127  Biso   1.000  O
  O48      1.0000 0.11201  0.52127  0.37425  Biso   1.000  O
