data_image0
_cell_length_a       21.1439
_cell_length_b       21.7114
_cell_length_c       21.9026
_cell_angle_alpha    89.9812
_cell_angle_beta     59.8869
_cell_angle_gamma    59.3869

_symmetry_space_group_name_H-M    "P 1"
_symmetry_int_tables_number       1

loop_
  _symmetry_equiv_pos_as_xyz
  'x, y, z'

loop_
  _atom_site_label
  _atom_site_occupancy
  _atom_site_fract_x
  _atom_site_fract_y
  _atom_site_fract_z
  _atom_site_thermal_displace_type
  _atom_site_B_iso_or_equiv
  _atom_site_type_symbol
  Zn1      1.0000 0.06313  0.98146  0.86984  Biso   1.000  Zn
  Zn2      1.0000 0.93200  0.97193  0.04074  Biso   1.000  Zn
  Zn3      1.0000 0.92496  0.12683  0.01834  Biso   1.000  Zn
  Zn4      1.0000 0.04748  0.95813  0.02297  Biso   1.000  Zn
  O1       1.0000 0.98624  0.02004  0.97713  Biso   1.000  O
  O2       1.0000 0.95200  0.90561  0.95858  Biso   1.000  O
  C1       1.0000 0.98543  0.89484  0.88965  Biso   1.000  C
  O3       1.0000 0.02705  0.92049  0.84797  Biso   1.000  O
  C2       1.0000 0.97733  0.84436  0.85230  Biso   1.000  C
  C3       1.0000 0.99567  0.83950  0.78380  Biso   1.000  C
  C4       1.0000 0.99332  0.78815  0.74224  Biso   1.000  C
  C5       1.0000 0.93728  0.81800  0.71762  Biso   1.000  C
  C6       1.0000 0.93829  0.76906  0.67520  Biso   1.000  C
  C7       1.0000 0.99562  0.69029  0.65741  Biso   1.000  C
  C8       1.0000 0.05136  0.65991  0.68200  Biso   1.000  C
  C9       1.0000 0.04981  0.70910  0.72472  Biso   1.000  C
  C10      1.0000 0.99717  0.63760  0.61124  Biso   1.000  C
  O4       1.0000 0.05330  0.61441  0.54077  Biso   1.000  O
  O5       1.0000 0.94207  0.62141  0.64731  Biso   1.000  O
  H1       1.0000 0.95555  0.81292  0.88561  Biso   1.000  H
  H2       1.0000 0.01575  0.87378  0.75348  Biso   1.000  H
  H3       1.0000 0.89283  0.87939  0.73169  Biso   1.000  H
  H4       1.0000 0.89504  0.79209  0.65585  Biso   1.000  H
  H5       1.0000 0.09553  0.59846  0.66805  Biso   1.000  H
  H6       1.0000 0.09300  0.68595  0.74410  Biso   1.000  H
  O6       1.0000 0.93877  0.17086  0.93728  Biso   1.000  O
  C11      1.0000 0.98655  0.13885  0.86686  Biso   1.000  C
  O7       1.0000 0.03919  0.06791  0.83091  Biso   1.000  O
  C12      1.0000 0.97821  0.19187  0.82349  Biso   1.000  C
  C13      1.0000 0.04518  0.17329  0.75281  Biso   1.000  C
  C14      1.0000 0.03514  0.22821  0.71233  Biso   1.000  C
  C15      1.0000 0.07721  0.26436  0.70223  Biso   1.000  C
  C16      1.0000 0.06511  0.31844  0.66652  Biso   1.000  C
  C17      1.0000 0.01191  0.33514  0.64029  Biso   1.000  C
  C18      1.0000 0.97159  0.29789  0.64849  Biso   1.000  C
  C19      1.0000 0.98277  0.24463  0.68512  Biso   1.000  C
  C20      1.0000 0.99803  0.39338  0.60210  Biso   1.000  C
  O8       1.0000 0.02561  0.36999  0.53514  Biso   1.000  O
  O9       1.0000 0.95901  0.46079  0.64053  Biso   1.000  O
  H7       1.0000 0.91271  0.24795  0.85578  Biso   1.000  H
  H8       1.0000 0.11070  0.11703  0.72146  Biso   1.000  H
  H9       1.0000 0.11848  0.25086  0.72285  Biso   1.000  H
  H10      1.0000 0.09649  0.34764  0.65932  Biso   1.000  H
  H11      1.0000 0.93186  0.31050  0.62630  Biso   1.000  H
  H12      1.0000 0.95086  0.21593  0.69259  Biso   1.000  H
  O10      1.0000 0.17868  0.90258  0.93894  Biso   1.000  O
  C21      1.0000 0.22443  0.88836  0.86894  Biso   1.000  C
  O11      1.0000 0.19327  0.91238  0.83059  Biso   1.000  O
  C22      1.0000 0.32452  0.83898  0.82835  Biso   1.000  C
  C23      1.0000 0.38126  0.79402  0.75646  Biso   1.000  C
  C24      1.0000 0.48032  0.74476  0.71709  Biso   1.000  C
  C25      1.0000 0.52825  0.66520  0.69409  Biso   1.000  C
  C26      1.0000 0.62201  0.61894  0.65656  Biso   1.000  C
  C27      1.0000 0.66702  0.65275  0.64265  Biso   1.000  C
  C28      1.0000 0.61972  0.73210  0.66550  Biso   1.000  C
  C29      1.0000 0.52616  0.77814  0.70260  Biso   1.000  C
  C30      1.0000 0.76781  0.60401  0.60244  Biso   1.000  C
  O12      1.0000 0.81547  0.56288  0.53470  Biso   1.000  O
  O13      1.0000 0.79532  0.60838  0.64078  Biso   1.000  O
  H13      1.0000 0.34656  0.84157  0.86348  Biso   1.000  H
  H14      1.0000 0.35723  0.79167  0.72281  Biso   1.000  H
  H15      1.0000 0.49239  0.63953  0.70550  Biso   1.000  H
  H16      1.0000 0.65983  0.55705  0.63820  Biso   1.000  H
  H17      1.0000 0.65573  0.75762  0.65461  Biso   1.000  H
  H18      1.0000 0.48868  0.83997  0.72030  Biso   1.000  H
  O14      1.0000 0.79670  0.16852  0.09664  Biso   1.000  O
  C31      1.0000 0.76065  0.13406  0.12254  Biso   1.000  C
  O15      1.0000 0.80085  0.06302  0.10783  Biso   1.000  O
  C32      1.0000 0.66004  0.18523  0.17638  Biso   1.000  C
  C33      1.0000 0.60784  0.16504  0.18189  Biso   1.000  C
  C34      1.0000 0.50810  0.21806  0.23137  Biso   1.000  C
  C35      1.0000 0.46046  0.23986  0.19897  Biso   1.000  C
  C36      1.0000 0.36656  0.29316  0.24402  Biso   1.000  C
  C37      1.0000 0.32059  0.32406  0.32157  Biso   1.000  C
  C38      1.0000 0.36712  0.30083  0.35470  Biso   1.000  C
  C39      1.0000 0.46110  0.24774  0.30942  Biso   1.000  C
  C40      1.0000 0.22023  0.38492  0.37002  Biso   1.000  C
  O16      1.0000 0.16952  0.36610  0.37889  Biso   1.000  O
  O17      1.0000 0.19657  0.45063  0.39643  Biso   1.000  O
  H19      1.0000 0.63348  0.24137  0.20822  Biso   1.000  H
  H20      1.0000 0.63649  0.10841  0.14870  Biso   1.000  H
  H21      1.0000 0.49680  0.21591  0.13848  Biso   1.000  H
  H22      1.0000 0.32930  0.31079  0.21908  Biso   1.000  H
  H23      1.0000 0.33035  0.32479  0.41532  Biso   1.000  H
  H24      1.0000 0.49795  0.22974  0.33469  Biso   1.000  H
  O18      1.0000 0.06638  0.87213  0.06898  Biso   1.000  O
  C41      1.0000 0.99965  0.86906  0.11085  Biso   1.000  C
  O19      1.0000 0.92680  0.91087  0.11543  Biso   1.000  O
  C42      1.0000 0.01000  0.81611  0.15337  Biso   1.000  C
  C43      1.0000 0.94018  0.81815  0.20887  Biso   1.000  C
  C44      1.0000 0.95193  0.76641  0.25221  Biso   1.000  C
  C45      1.0000 0.89942  0.79706  0.33088  Biso   1.000  C
  C46      1.0000 0.91247  0.74890  0.37231  Biso   1.000  C
  C47      1.0000 0.97722  0.67017  0.33489  Biso   1.000  C
  C48      1.0000 0.02855  0.63895  0.25668  Biso   1.000  C
  C49      1.0000 0.01605  0.68729  0.21528  Biso   1.000  C
  C50      1.0000 0.99121  0.61835  0.37962  Biso   1.000  C
  O20      1.0000 0.94861  0.58939  0.39667  Biso   1.000  O
  O21      1.0000 0.04453  0.60859  0.39592  Biso   1.000  O
  H25      1.0000 0.07958  0.77648  0.13628  Biso   1.000  H
  H26      1.0000 0.87095  0.85886  0.22524  Biso   1.000  H
  H27      1.0000 0.84904  0.85841  0.35967  Biso   1.000  H
  H28      1.0000 0.87263  0.77246  0.43334  Biso   1.000  H
  H29      1.0000 0.07811  0.57742  0.22821  Biso   1.000  H
  H30      1.0000 0.05595  0.66344  0.15430  Biso   1.000  H
  O22      1.0000 0.02525  0.03496  0.09757  Biso   1.000  O
  C51      1.0000 0.00371  0.10176  0.10283  Biso   1.000  C
  O23      1.0000 0.97290  0.14302  0.07009  Biso   1.000  O
  C52      1.0000 0.01388  0.13625  0.15318  Biso   1.000  C
  C53      1.0000 0.99669  0.20524  0.15887  Biso   1.000  C
  C54      1.0000 0.00142  0.24493  0.20926  Biso   1.000  C
  C55      1.0000 0.04656  0.27926  0.18167  Biso   1.000  C
  C56      1.0000 0.04610  0.32130  0.23020  Biso   1.000  C
  C57      1.0000 0.00089  0.32849  0.30631  Biso   1.000  C
  C58      1.0000 0.95757  0.29298  0.33406  Biso   1.000  C
  C59      1.0000 0.95766  0.25143  0.28536  Biso   1.000  C
  C60      1.0000 0.99735  0.37585  0.35871  Biso   1.000  C
  O24      1.0000 0.97503  0.44258  0.35783  Biso   1.000  O
  O25      1.0000 0.01569  0.35076  0.40443  Biso   1.000  O
  H31      1.0000 0.03586  0.10089  0.18352  Biso   1.000  H
  H32      1.0000 0.97609  0.23716  0.12546  Biso   1.000  H
  H33      1.0000 0.08139  0.27357  0.12243  Biso   1.000  H
  H34      1.0000 0.07987  0.34908  0.20947  Biso   1.000  H
  H35      1.0000 0.92386  0.29809  0.39326  Biso   1.000  H
  H36      1.0000 0.92300  0.22446  0.30654  Biso   1.000  H
  Zn5      1.0000 0.92181  0.55366  0.61090  Biso   1.000  Zn
  Zn6      1.0000 0.07408  0.54934  0.45908  Biso   1.000  Zn
  Zn7      1.0000 0.94618  0.51287  0.44755  Biso   1.000  Zn
  Zn8      1.0000 0.03565  0.41579  0.45467  Biso   1.000  Zn
  O26      1.0000 0.99484  0.51936  0.50353  Biso   1.000  O
