data_image0
_cell_length_a       24.679
_cell_length_b       24.679
_cell_length_c       17.512
_cell_angle_alpha    90
_cell_angle_beta     90
_cell_angle_gamma    120

_symmetry_space_group_name_H-M    "P 1"
_symmetry_int_tables_number       1

loop_
  _symmetry_equiv_pos_as_xyz
  'x, y, z'

loop_
  _atom_site_label
  _atom_site_occupancy
  _atom_site_fract_x
  _atom_site_fract_y
  _atom_site_fract_z
  _atom_site_thermal_displace_type
  _atom_site_B_iso_or_equiv
  _atom_site_type_symbol
  Al1      1.0000 0.41895  0.70946  0.00000  Biso   1.000  Al
  Al2      1.0000 0.29050  0.70946  0.00000  Biso   1.000  Al
  Al3      1.0000 0.29053  0.58107  0.00000  Biso   1.000  Al
  O1       1.0000 0.51287  0.75643  0.00000  Biso   1.000  O
  O2       1.0000 0.24357  0.75643  0.00000  Biso   1.000  O
  O3       1.0000 0.24356  0.48712  0.00000  Biso   1.000  O
  O4       1.0000 0.42810  0.76682  0.92331  Biso   1.000  O
  O5       1.0000 0.23314  0.66127  0.92331  Biso   1.000  O
  O6       1.0000 0.33875  0.57190  0.92331  Biso   1.000  O
  O7       1.0000 0.42810  0.76682  0.07669  Biso   1.000  O
  O8       1.0000 0.23314  0.66127  0.07669  Biso   1.000  O
  O9       1.0000 0.33875  0.57190  0.07669  Biso   1.000  O
  O10      1.0000 0.23315  0.57190  0.92331  Biso   1.000  O
  O11      1.0000 0.33872  0.76682  0.92331  Biso   1.000  O
  O12      1.0000 0.42812  0.66127  0.92331  Biso   1.000  O
  O13      1.0000 0.23315  0.57190  0.07669  Biso   1.000  O
  O14      1.0000 0.33872  0.76682  0.07669  Biso   1.000  O
  O15      1.0000 0.42812  0.66127  0.07669  Biso   1.000  O
  O16      1.0000 0.33331  0.66669  0.00000  Biso   1.000  O
  C1       1.0000 0.66672  0.33332  0.57309  Biso   1.000  C
  C2       1.0000 0.66672  0.33332  0.42691  Biso   1.000  C
  H1       1.0000 0.66672  0.33332  0.62911  Biso   1.000  H
  H2       1.0000 0.66672  0.33332  0.37089  Biso   1.000  H
  C3       1.0000 0.63422  0.26847  0.54197  Biso   1.000  C
  C4       1.0000 0.73152  0.36575  0.54197  Biso   1.000  C
  C5       1.0000 0.63423  0.36575  0.54197  Biso   1.000  C
  C6       1.0000 0.63422  0.26847  0.45803  Biso   1.000  C
  C7       1.0000 0.73152  0.36575  0.45803  Biso   1.000  C
  C8       1.0000 0.63423  0.36575  0.45803  Biso   1.000  C
  C9       1.0000 0.54784  0.09573  0.58680  Biso   1.000  C
  C10      1.0000 0.90425  0.45212  0.58680  Biso   1.000  C
  C11      1.0000 0.54787  0.45212  0.58680  Biso   1.000  C
  C12      1.0000 0.54784  0.09573  0.41320  Biso   1.000  C
  C13      1.0000 0.90425  0.45212  0.41320  Biso   1.000  C
  C14      1.0000 0.54787  0.45212  0.41320  Biso   1.000  C
  C15      1.0000 0.41829  0.83658  0.84000  Biso   1.000  C
  C16      1.0000 0.16343  0.58173  0.84000  Biso   1.000  C
  C17      1.0000 0.41828  0.58168  0.84000  Biso   1.000  C
  C18      1.0000 0.41829  0.83658  0.16000  Biso   1.000  C
  C19      1.0000 0.16343  0.58173  0.16000  Biso   1.000  C
  C20      1.0000 0.41828  0.58168  0.16000  Biso   1.000  C
  C21      1.0000 0.57739  0.15473  0.54037  Biso   1.000  C
  C22      1.0000 0.84526  0.42264  0.54037  Biso   1.000  C
  C23      1.0000 0.57738  0.42264  0.54037  Biso   1.000  C
  C24      1.0000 0.57739  0.15473  0.45963  Biso   1.000  C
  C25      1.0000 0.84526  0.42264  0.45963  Biso   1.000  C
  C26      1.0000 0.57738  0.42264  0.45963  Biso   1.000  C
  C27      1.0000 0.39333  0.78666  0.90332  Biso   1.000  C
  C28      1.0000 0.21334  0.60666  0.90332  Biso   1.000  C
  C29      1.0000 0.39333  0.60666  0.90332  Biso   1.000  C
  C30      1.0000 0.39333  0.78666  0.09668  Biso   1.000  C
  C31      1.0000 0.21334  0.60666  0.09668  Biso   1.000  C
  C32      1.0000 0.39333  0.60666  0.09668  Biso   1.000  C
  C33      1.0000 0.60658  0.21312  0.57812  Biso   1.000  C
  C34      1.0000 0.78686  0.39345  0.57812  Biso   1.000  C
  C35      1.0000 0.60659  0.39345  0.57812  Biso   1.000  C
  C36      1.0000 0.60658  0.21312  0.42188  Biso   1.000  C
  C37      1.0000 0.78686  0.39345  0.42188  Biso   1.000  C
  C38      1.0000 0.60659  0.39345  0.42188  Biso   1.000  C
  H3       1.0000 0.60663  0.21322  0.63122  Biso   1.000  H
  H4       1.0000 0.78680  0.39340  0.63122  Biso   1.000  H
  H5       1.0000 0.60660  0.39340  0.63122  Biso   1.000  H
  H6       1.0000 0.60663  0.21322  0.36878  Biso   1.000  H
  H7       1.0000 0.78680  0.39340  0.36878  Biso   1.000  H
  H8       1.0000 0.60660  0.39340  0.36878  Biso   1.000  H
  C39      1.0000 0.46737  0.93475  0.73567  Biso   1.000  C
  C40      1.0000 0.06526  0.53264  0.73567  Biso   1.000  C
  C41      1.0000 0.46736  0.53260  0.73567  Biso   1.000  C
  C42      1.0000 0.46737  0.93475  0.26433  Biso   1.000  C
  C43      1.0000 0.06526  0.53264  0.26433  Biso   1.000  C
  C44      1.0000 0.46736  0.53260  0.26433  Biso   1.000  C
  C45      1.0000 0.49561  0.99122  0.68353  Biso   1.000  C
  C46      1.0000 0.00879  0.50438  0.68353  Biso   1.000  C
  C47      1.0000 0.49560  0.50438  0.68353  Biso   1.000  C
  C48      1.0000 0.49561  0.99122  0.31647  Biso   1.000  C
  C49      1.0000 0.00879  0.50438  0.31647  Biso   1.000  C
  C50      1.0000 0.49560  0.50438  0.31647  Biso   1.000  C
  C51      1.0000 0.47904  0.86236  0.81401  Biso   1.000  C
  C52      1.0000 0.13763  0.61668  0.81401  Biso   1.000  C
  C53      1.0000 0.38335  0.52099  0.81401  Biso   1.000  C
  C54      1.0000 0.47904  0.86236  0.18599  Biso   1.000  C
  C55      1.0000 0.13763  0.61668  0.18599  Biso   1.000  C
  C56      1.0000 0.38335  0.52099  0.18599  Biso   1.000  C
  C57      1.0000 0.13764  0.52099  0.81401  Biso   1.000  C
  C58      1.0000 0.38333  0.86236  0.81401  Biso   1.000  C
  C59      1.0000 0.47905  0.61668  0.81401  Biso   1.000  C
  C60      1.0000 0.13764  0.52099  0.18599  Biso   1.000  C
  C61      1.0000 0.38333  0.86236  0.18599  Biso   1.000  C
  C62      1.0000 0.47905  0.61668  0.18599  Biso   1.000  C
  H9       1.0000 0.50381  0.84660  0.83212  Biso   1.000  H
  H10      1.0000 0.15339  0.65720  0.83212  Biso   1.000  H
  H11      1.0000 0.34279  0.49620  0.83212  Biso   1.000  H
  H12      1.0000 0.50381  0.84660  0.16788  Biso   1.000  H
  H13      1.0000 0.15339  0.65720  0.16788  Biso   1.000  H
  H14      1.0000 0.34279  0.49620  0.16788  Biso   1.000  H
  H15      1.0000 0.15340  0.49620  0.83212  Biso   1.000  H
  H16      1.0000 0.34278  0.84660  0.83212  Biso   1.000  H
  H17      1.0000 0.50381  0.65720  0.83212  Biso   1.000  H
  H18      1.0000 0.15340  0.49620  0.16788  Biso   1.000  H
  H19      1.0000 0.34278  0.84660  0.16788  Biso   1.000  H
  H20      1.0000 0.50381  0.65720  0.16788  Biso   1.000  H
  C63      1.0000 0.50373  0.91037  0.76256  Biso   1.000  C
  C64      1.0000 0.08963  0.59338  0.76256  Biso   1.000  C
  C65      1.0000 0.40664  0.49624  0.76256  Biso   1.000  C
  C66      1.0000 0.50373  0.91037  0.23744  Biso   1.000  C
  C67      1.0000 0.08963  0.59338  0.23744  Biso   1.000  C
  C68      1.0000 0.40664  0.49624  0.23744  Biso   1.000  C
  C69      1.0000 0.08961  0.49624  0.76256  Biso   1.000  C
  C70      1.0000 0.40664  0.91037  0.76256  Biso   1.000  C
  C71      1.0000 0.50375  0.59338  0.76256  Biso   1.000  C
  C72      1.0000 0.08961  0.49624  0.23744  Biso   1.000  C
  C73      1.0000 0.40664  0.91037  0.23744  Biso   1.000  C
  C74      1.0000 0.50375  0.59338  0.23744  Biso   1.000  C
  H21      1.0000 0.54471  0.92670  0.74560  Biso   1.000  H
  H22      1.0000 0.07329  0.61799  0.74560  Biso   1.000  H
  H23      1.0000 0.38199  0.45530  0.74560  Biso   1.000  H
  H24      1.0000 0.54471  0.92670  0.25440  Biso   1.000  H
  H25      1.0000 0.07329  0.61799  0.25440  Biso   1.000  H
  H26      1.0000 0.38199  0.45530  0.25440  Biso   1.000  H
  H27      1.0000 0.07331  0.45530  0.74560  Biso   1.000  H
  H28      1.0000 0.38198  0.92670  0.74560  Biso   1.000  H
  H29      1.0000 0.54470  0.61799  0.74560  Biso   1.000  H
  H30      1.0000 0.07331  0.45530  0.25440  Biso   1.000  H
  H31      1.0000 0.38198  0.92670  0.25440  Biso   1.000  H
  H32      1.0000 0.54470  0.61799  0.25440  Biso   1.000  H
  C75      1.0000 0.58559  0.08824  0.64145  Biso   1.000  C
  C76      1.0000 0.50264  0.41441  0.64145  Biso   1.000  C
  C77      1.0000 0.58559  0.08824  0.35855  Biso   1.000  C
  C78      1.0000 0.91177  0.41441  0.64145  Biso   1.000  C
  C79      1.0000 0.50265  0.08824  0.64145  Biso   1.000  C
  C80      1.0000 0.91177  0.41441  0.35855  Biso   1.000  C
  C81      1.0000 0.50265  0.08824  0.35855  Biso   1.000  C
  C82      1.0000 0.58561  0.49736  0.35855  Biso   1.000  C
  H33      1.0000 0.62581  0.12029  0.65292  Biso   1.000  H
  H34      1.0000 0.49450  0.37422  0.65292  Biso   1.000  H
  H35      1.0000 0.62581  0.12029  0.34708  Biso   1.000  H
  H36      1.0000 0.87972  0.37422  0.65292  Biso   1.000  H
  H37      1.0000 0.49448  0.12029  0.65292  Biso   1.000  H
  H38      1.0000 0.87972  0.37422  0.34708  Biso   1.000  H
  H39      1.0000 0.49448  0.12029  0.34708  Biso   1.000  H
  H40      1.0000 0.62582  0.50551  0.34708  Biso   1.000  H
  C83      1.0000 0.95652  0.51355  0.57886  Biso   1.000  C
  C84      1.0000 0.95652  0.51355  0.42114  Biso   1.000  C
  C85      1.0000 0.48644  0.44295  0.42114  Biso   1.000  C
  C86      1.0000 0.55703  0.51355  0.57886  Biso   1.000  C
  H41      1.0000 0.95753  0.53671  0.53638  Biso   1.000  H
  H42      1.0000 0.95753  0.53671  0.46362  Biso   1.000  H
  H43      1.0000 0.46330  0.42082  0.46362  Biso   1.000  H
  H44      1.0000 0.57919  0.53671  0.53638  Biso   1.000  H
  C87      1.0000 0.55914  0.02934  0.67788  Biso   1.000  C
  C88      1.0000 0.47021  0.44089  0.67788  Biso   1.000  C
  C89      1.0000 0.55914  0.02934  0.32212  Biso   1.000  C
  C90      1.0000 0.97068  0.44089  0.67788  Biso   1.000  C
  C91      1.0000 0.47020  0.02934  0.67788  Biso   1.000  C
  C92      1.0000 0.97068  0.44089  0.32212  Biso   1.000  C
  C93      1.0000 0.47020  0.02934  0.32212  Biso   1.000  C
  C94      1.0000 0.55911  0.52979  0.32212  Biso   1.000  C
  H45      1.0000 0.58539  0.01619  0.69849  Biso   1.000  H
  H46      1.0000 0.43081  0.41460  0.69849  Biso   1.000  H
  H47      1.0000 0.58539  0.01619  0.30151  Biso   1.000  H
  H48      1.0000 0.98379  0.41460  0.69849  Biso   1.000  H
  H49      1.0000 0.43080  0.01619  0.69849  Biso   1.000  H
  H50      1.0000 0.98379  0.41460  0.30151  Biso   1.000  H
  H51      1.0000 0.43080  0.01619  0.30151  Biso   1.000  H
  H52      1.0000 0.58537  0.56919  0.30151  Biso   1.000  H
  C95      1.0000 0.00356  0.54004  0.62711  Biso   1.000  C
  C96      1.0000 0.00356  0.54004  0.37289  Biso   1.000  C
  C97      1.0000 0.45996  0.46349  0.37289  Biso   1.000  C
  C98      1.0000 0.53648  0.54004  0.62711  Biso   1.000  C
  H53      1.0000 0.03279  0.58238  0.62312  Biso   1.000  H
  H54      1.0000 0.03279  0.58238  0.37688  Biso   1.000  H
  H55      1.0000 0.41758  0.45039  0.37688  Biso   1.000  H
  H56      1.0000 0.54959  0.58238  0.62312  Biso   1.000  H
  H57      1.0000 0.55217  0.75643  0.00000  Biso   1.000  H
  H58      1.0000 0.51999  0.79686  0.01719  Biso   1.000  H
  H59      1.0000 0.28286  0.48712  0.00000  Biso   1.000  H
  H60      1.0000 0.21267  0.45151  0.02895  Biso   1.000  H
  H61      1.0000 0.22362  0.78469  0.00000  Biso   1.000  H
