data_image0
_cell_length_a       13.4807
_cell_length_b       13.4807
_cell_length_c       13.4807
_cell_angle_alpha    86.5535
_cell_angle_beta     86.5535
_cell_angle_gamma    86.5535

_symmetry_space_group_name_H-M    "P 1"
_symmetry_int_tables_number       1

loop_
  _symmetry_equiv_pos_as_xyz
  'x, y, z'

loop_
  _atom_site_label
  _atom_site_occupancy
  _atom_site_fract_x
  _atom_site_fract_y
  _atom_site_fract_z
  _atom_site_thermal_displace_type
  _atom_site_B_iso_or_equiv
  _atom_site_type_symbol
  Cu1      1.0000 0.01975  0.59171  0.01975  Biso   1.000  Cu
  Cu2      1.0000 0.01975  0.01975  0.59171  Biso   1.000  Cu
  Cu3      1.0000 0.59171  0.01975  0.01975  Biso   1.000  Cu
  Cu4      1.0000 0.40829  0.98025  0.98025  Biso   1.000  Cu
  Cu5      1.0000 0.98025  0.98025  0.40829  Biso   1.000  Cu
  Cu6      1.0000 0.98025  0.40829  0.98025  Biso   1.000  Cu
  H1       1.0000 0.99990  0.44150  0.65980  Biso   1.000  H
  H2       1.0000 0.65980  0.99990  0.44150  Biso   1.000  H
  H3       1.0000 0.44150  0.65980  0.99990  Biso   1.000  H
  H4       1.0000 0.55850  0.00010  0.34020  Biso   1.000  H
  H5       1.0000 0.00010  0.34020  0.55850  Biso   1.000  H
  H6       1.0000 0.34020  0.55850  0.00010  Biso   1.000  H
  H7       1.0000 0.00010  0.55850  0.34020  Biso   1.000  H
  H8       1.0000 0.34020  0.00010  0.55850  Biso   1.000  H
  H9       1.0000 0.55850  0.34020  0.00010  Biso   1.000  H
  H10      1.0000 0.44150  0.99990  0.65980  Biso   1.000  H
  H11      1.0000 0.99990  0.65980  0.44150  Biso   1.000  H
  H12      1.0000 0.65980  0.44150  0.99990  Biso   1.000  H
  H13      1.0000 0.01580  0.72780  0.72780  Biso   1.000  H
  H14      1.0000 0.72780  0.01580  0.72780  Biso   1.000  H
  H15      1.0000 0.72780  0.72780  0.01580  Biso   1.000  H
  H16      1.0000 0.27220  0.98420  0.27220  Biso   1.000  H
  H17      1.0000 0.98420  0.27220  0.27220  Biso   1.000  H
  H18      1.0000 0.27220  0.27220  0.98420  Biso   1.000  H
  C1       1.0000 0.00734  0.54835  0.81755  Biso   1.000  C
  C2       1.0000 0.00222  0.50996  0.63906  Biso   1.000  C
  C3       1.0000 0.00717  0.57969  0.70955  Biso   1.000  C
  C4       1.0000 0.81755  0.00734  0.54835  Biso   1.000  C
  C5       1.0000 0.63906  0.00222  0.50996  Biso   1.000  C
  C6       1.0000 0.70955  0.00717  0.57969  Biso   1.000  C
  C7       1.0000 0.54835  0.81755  0.00734  Biso   1.000  C
  C8       1.0000 0.50996  0.63906  0.00222  Biso   1.000  C
  C9       1.0000 0.57969  0.70955  0.00717  Biso   1.000  C
  C10      1.0000 0.45165  0.99266  0.18245  Biso   1.000  C
  C11      1.0000 0.49004  0.99778  0.36094  Biso   1.000  C
  C12      1.0000 0.42031  0.99283  0.29045  Biso   1.000  C
  C13      1.0000 0.99266  0.18245  0.45165  Biso   1.000  C
  C14      1.0000 0.99778  0.36094  0.49004  Biso   1.000  C
  C15      1.0000 0.99283  0.29045  0.42031  Biso   1.000  C
  C16      1.0000 0.18245  0.45165  0.99266  Biso   1.000  C
  C17      1.0000 0.36094  0.49004  0.99778  Biso   1.000  C
  C18      1.0000 0.29045  0.42031  0.99283  Biso   1.000  C
  C19      1.0000 0.99266  0.45165  0.18245  Biso   1.000  C
  C20      1.0000 0.99778  0.49004  0.36094  Biso   1.000  C
  C21      1.0000 0.99283  0.42031  0.29045  Biso   1.000  C
  C22      1.0000 0.18245  0.99266  0.45165  Biso   1.000  C
  C23      1.0000 0.36094  0.99778  0.49004  Biso   1.000  C
  C24      1.0000 0.29045  0.99283  0.42031  Biso   1.000  C
  C25      1.0000 0.45165  0.18245  0.99266  Biso   1.000  C
  C26      1.0000 0.49004  0.36094  0.99778  Biso   1.000  C
  C27      1.0000 0.42031  0.29045  0.99283  Biso   1.000  C
  C28      1.0000 0.54835  0.00734  0.81755  Biso   1.000  C
  C29      1.0000 0.50996  0.00222  0.63906  Biso   1.000  C
  C30      1.0000 0.57969  0.00717  0.70955  Biso   1.000  C
  C31      1.0000 0.00734  0.81755  0.54835  Biso   1.000  C
  C32      1.0000 0.00222  0.63906  0.50996  Biso   1.000  C
  C33      1.0000 0.00717  0.70955  0.57969  Biso   1.000  C
  C34      1.0000 0.81755  0.54835  0.00734  Biso   1.000  C
  C35      1.0000 0.63906  0.50996  0.00222  Biso   1.000  C
  C36      1.0000 0.70955  0.57969  0.00717  Biso   1.000  C
  C37      1.0000 0.00056  0.53856  0.53856  Biso   1.000  C
  C38      1.0000 0.01088  0.67983  0.67983  Biso   1.000  C
  C39      1.0000 0.53856  0.00056  0.53856  Biso   1.000  C
  C40      1.0000 0.67983  0.01088  0.67983  Biso   1.000  C
  C41      1.0000 0.53856  0.53856  0.00056  Biso   1.000  C
  C42      1.0000 0.67983  0.67983  0.01088  Biso   1.000  C
  C43      1.0000 0.46144  0.99944  0.46144  Biso   1.000  C
  C44      1.0000 0.32017  0.98912  0.32017  Biso   1.000  C
  C45      1.0000 0.99944  0.46144  0.46144  Biso   1.000  C
  C46      1.0000 0.98912  0.32017  0.32017  Biso   1.000  C
  C47      1.0000 0.46144  0.46144  0.99944  Biso   1.000  C
  C48      1.0000 0.32017  0.32017  0.98912  Biso   1.000  C
  O1       1.0000 0.02302  0.61402  0.87579  Biso   1.000  O
  O2       1.0000 0.99010  0.45935  0.84150  Biso   1.000  O
  O3       1.0000 0.87579  0.02302  0.61402  Biso   1.000  O
  O4       1.0000 0.84150  0.99010  0.45935  Biso   1.000  O
  O5       1.0000 0.61402  0.87579  0.02302  Biso   1.000  O
  O6       1.0000 0.45935  0.84150  0.99010  Biso   1.000  O
  O7       1.0000 0.38598  0.97698  0.12421  Biso   1.000  O
  O8       1.0000 0.54065  0.00990  0.15850  Biso   1.000  O
  O9       1.0000 0.97698  0.12421  0.38598  Biso   1.000  O
  O10      1.0000 0.00990  0.15850  0.54065  Biso   1.000  O
  O11      1.0000 0.12421  0.38598  0.97698  Biso   1.000  O
  O12      1.0000 0.15850  0.54065  0.00990  Biso   1.000  O
  O13      1.0000 0.97698  0.38598  0.12421  Biso   1.000  O
  O14      1.0000 0.00990  0.54065  0.15850  Biso   1.000  O
  O15      1.0000 0.12421  0.97698  0.38598  Biso   1.000  O
  O16      1.0000 0.15850  0.00990  0.54065  Biso   1.000  O
  O17      1.0000 0.38598  0.12421  0.97698  Biso   1.000  O
  O18      1.0000 0.54065  0.15850  0.00990  Biso   1.000  O
  O19      1.0000 0.61402  0.02302  0.87579  Biso   1.000  O
  O20      1.0000 0.45935  0.99010  0.84150  Biso   1.000  O
  O21      1.0000 0.02302  0.87579  0.61402  Biso   1.000  O
  O22      1.0000 0.99010  0.84150  0.45935  Biso   1.000  O
  O23      1.0000 0.87579  0.61402  0.02302  Biso   1.000  O
  O24      1.0000 0.84150  0.45935  0.99010  Biso   1.000  O
