data_image0
_cell_length_a       34.5726
_cell_length_b       34.5726
_cell_length_c       34.5726
_cell_angle_alpha    60
_cell_angle_beta     60
_cell_angle_gamma    60

_symmetry_space_group_name_H-M    "P 1"
_symmetry_int_tables_number       1

loop_
  _symmetry_equiv_pos_as_xyz
  'x, y, z'

loop_
  _atom_site_label
  _atom_site_occupancy
  _atom_site_fract_x
  _atom_site_fract_y
  _atom_site_fract_z
  _atom_site_thermal_displace_type
  _atom_site_B_iso_or_equiv
  _atom_site_type_symbol
  Cu1      1.0000 0.77050  0.00000  0.00000  Biso   1.000  Cu
  Cu2      1.0000 0.69360  0.00000  0.00000  Biso   1.000  Cu
  Cu3      1.0000 0.00000  0.77050  0.22950  Biso   1.000  Cu
  Cu4      1.0000 0.00000  0.69360  0.30640  Biso   1.000  Cu
  Cu5      1.0000 0.00000  0.22950  0.77050  Biso   1.000  Cu
  Cu6      1.0000 0.00000  0.30640  0.69360  Biso   1.000  Cu
  Cu7      1.0000 0.22950  0.00000  0.00000  Biso   1.000  Cu
  Cu8      1.0000 0.30640  0.00000  0.00000  Biso   1.000  Cu
  Cu9      1.0000 0.77050  0.00000  0.22950  Biso   1.000  Cu
  Cu10     1.0000 0.69360  0.00000  0.30640  Biso   1.000  Cu
  Cu11     1.0000 0.00000  0.22950  0.00000  Biso   1.000  Cu
  Cu12     1.0000 0.00000  0.30640  0.00000  Biso   1.000  Cu
  Cu13     1.0000 0.00000  0.77050  0.00000  Biso   1.000  Cu
  Cu14     1.0000 0.00000  0.69360  0.00000  Biso   1.000  Cu
  Cu15     1.0000 0.22950  0.00000  0.77050  Biso   1.000  Cu
  Cu16     1.0000 0.30640  0.00000  0.69360  Biso   1.000  Cu
  Cu17     1.0000 0.77050  0.22950  0.00000  Biso   1.000  Cu
  Cu18     1.0000 0.69360  0.30640  0.00000  Biso   1.000  Cu
  Cu19     1.0000 0.00000  0.00000  0.77050  Biso   1.000  Cu
  Cu20     1.0000 0.00000  0.00000  0.69360  Biso   1.000  Cu
  Cu21     1.0000 0.00000  0.00000  0.22950  Biso   1.000  Cu
  Cu22     1.0000 0.00000  0.00000  0.30640  Biso   1.000  Cu
  Cu23     1.0000 0.22950  0.77050  0.00000  Biso   1.000  Cu
  Cu24     1.0000 0.30640  0.69360  0.00000  Biso   1.000  Cu
  H1       1.0000 0.73560  0.85560  0.02440  Biso   1.000  H
  H2       1.0000 0.85560  0.73560  0.38440  Biso   1.000  H
  H3       1.0000 0.02440  0.38440  0.73560  Biso   1.000  H
  H4       1.0000 0.38440  0.02440  0.85560  Biso   1.000  H
  H5       1.0000 0.73560  0.02440  0.38440  Biso   1.000  H
  H6       1.0000 0.85560  0.38440  0.02440  Biso   1.000  H
  H7       1.0000 0.02440  0.73560  0.85560  Biso   1.000  H
  H8       1.0000 0.38440  0.85560  0.73560  Biso   1.000  H
  H9       1.0000 0.73560  0.38440  0.85560  Biso   1.000  H
  H10      1.0000 0.85560  0.02440  0.73560  Biso   1.000  H
  H11      1.0000 0.02440  0.85560  0.38440  Biso   1.000  H
  H12      1.0000 0.38440  0.73560  0.02440  Biso   1.000  H
  H13      1.0000 0.14440  0.26440  0.97560  Biso   1.000  H
  H14      1.0000 0.26440  0.14440  0.61560  Biso   1.000  H
  H15      1.0000 0.61560  0.97560  0.26440  Biso   1.000  H
  H16      1.0000 0.97560  0.61560  0.14440  Biso   1.000  H
  H17      1.0000 0.97560  0.26440  0.61560  Biso   1.000  H
  H18      1.0000 0.61560  0.14440  0.97560  Biso   1.000  H
  H19      1.0000 0.26440  0.97560  0.14440  Biso   1.000  H
  H20      1.0000 0.14440  0.61560  0.26440  Biso   1.000  H
  H21      1.0000 0.61560  0.26440  0.14440  Biso   1.000  H
  H22      1.0000 0.97560  0.14440  0.26440  Biso   1.000  H
  H23      1.0000 0.14440  0.97560  0.61560  Biso   1.000  H
  H24      1.0000 0.26440  0.61560  0.97560  Biso   1.000  H
  H25      1.0000 0.26440  0.14440  0.97560  Biso   1.000  H
  H26      1.0000 0.14440  0.26440  0.61560  Biso   1.000  H
  H27      1.0000 0.97560  0.61560  0.26440  Biso   1.000  H
  H28      1.0000 0.61560  0.97560  0.14440  Biso   1.000  H
  H29      1.0000 0.26440  0.97560  0.61560  Biso   1.000  H
  H30      1.0000 0.14440  0.61560  0.97560  Biso   1.000  H
  H31      1.0000 0.97560  0.26440  0.14440  Biso   1.000  H
  H32      1.0000 0.61560  0.14440  0.26440  Biso   1.000  H
  H33      1.0000 0.26440  0.61560  0.14440  Biso   1.000  H
  H34      1.0000 0.14440  0.97560  0.26440  Biso   1.000  H
  H35      1.0000 0.97560  0.14440  0.61560  Biso   1.000  H
  H36      1.0000 0.61560  0.26440  0.97560  Biso   1.000  H
  H37      1.0000 0.85560  0.73560  0.02440  Biso   1.000  H
  H38      1.0000 0.73560  0.85560  0.38440  Biso   1.000  H
  H39      1.0000 0.38440  0.02440  0.73560  Biso   1.000  H
  H40      1.0000 0.02440  0.38440  0.85560  Biso   1.000  H
  H41      1.0000 0.02440  0.73560  0.38440  Biso   1.000  H
  H42      1.0000 0.38440  0.85560  0.02440  Biso   1.000  H
  H43      1.0000 0.73560  0.02440  0.85560  Biso   1.000  H
  H44      1.0000 0.85560  0.38440  0.73560  Biso   1.000  H
  H45      1.0000 0.38440  0.73560  0.85560  Biso   1.000  H
  H46      1.0000 0.02440  0.85560  0.73560  Biso   1.000  H
  H47      1.0000 0.85560  0.02440  0.38440  Biso   1.000  H
  H48      1.0000 0.73560  0.38440  0.02440  Biso   1.000  H
  H49      1.0000 0.85670  0.85670  0.01030  Biso   1.000  H
  H50      1.0000 0.85670  0.85670  0.27630  Biso   1.000  H
  H51      1.0000 0.01030  0.27630  0.85670  Biso   1.000  H
  H52      1.0000 0.27630  0.01030  0.85670  Biso   1.000  H
  H53      1.0000 0.85670  0.01030  0.27630  Biso   1.000  H
  H54      1.0000 0.85670  0.27630  0.01030  Biso   1.000  H
  H55      1.0000 0.01030  0.85670  0.85670  Biso   1.000  H
  H56      1.0000 0.27630  0.85670  0.85670  Biso   1.000  H
  H57      1.0000 0.85670  0.27630  0.85670  Biso   1.000  H
  H58      1.0000 0.85670  0.01030  0.85670  Biso   1.000  H
  H59      1.0000 0.01030  0.85670  0.27630  Biso   1.000  H
  H60      1.0000 0.27630  0.85670  0.01030  Biso   1.000  H
  H61      1.0000 0.14330  0.14330  0.98970  Biso   1.000  H
  H62      1.0000 0.14330  0.14330  0.72370  Biso   1.000  H
  H63      1.0000 0.72370  0.98970  0.14330  Biso   1.000  H
  H64      1.0000 0.98970  0.72370  0.14330  Biso   1.000  H
  H65      1.0000 0.98970  0.14330  0.72370  Biso   1.000  H
  H66      1.0000 0.72370  0.14330  0.98970  Biso   1.000  H
  H67      1.0000 0.14330  0.98970  0.14330  Biso   1.000  H
  H68      1.0000 0.14330  0.72370  0.14330  Biso   1.000  H
  H69      1.0000 0.72370  0.14330  0.14330  Biso   1.000  H
  H70      1.0000 0.98970  0.14330  0.14330  Biso   1.000  H
  H71      1.0000 0.14330  0.98970  0.72370  Biso   1.000  H
  H72      1.0000 0.14330  0.72370  0.98970  Biso   1.000  H
  H73      1.0000 0.61160  0.72780  0.04900  Biso   1.000  H
  H74      1.0000 0.72780  0.61160  0.61160  Biso   1.000  H
  H75      1.0000 0.04900  0.61160  0.61160  Biso   1.000  H
  H76      1.0000 0.61160  0.04900  0.72780  Biso   1.000  H
  H77      1.0000 0.61160  0.04900  0.61160  Biso   1.000  H
  H78      1.0000 0.72780  0.61160  0.04900  Biso   1.000  H
  H79      1.0000 0.04900  0.61160  0.72780  Biso   1.000  H
  H80      1.0000 0.61160  0.72780  0.61160  Biso   1.000  H
  H81      1.0000 0.61160  0.61160  0.72780  Biso   1.000  H
  H82      1.0000 0.72780  0.04900  0.61160  Biso   1.000  H
  H83      1.0000 0.04900  0.72780  0.61160  Biso   1.000  H
  H84      1.0000 0.61160  0.61160  0.04900  Biso   1.000  H
  H85      1.0000 0.27220  0.38840  0.95100  Biso   1.000  H
  H86      1.0000 0.38840  0.27220  0.38840  Biso   1.000  H
  H87      1.0000 0.38840  0.95100  0.38840  Biso   1.000  H
  H88      1.0000 0.95100  0.38840  0.27220  Biso   1.000  H
  H89      1.0000 0.95100  0.38840  0.38840  Biso   1.000  H
  H90      1.0000 0.38840  0.27220  0.95100  Biso   1.000  H
  H91      1.0000 0.38840  0.95100  0.27220  Biso   1.000  H
  H92      1.0000 0.27220  0.38840  0.38840  Biso   1.000  H
  H93      1.0000 0.38840  0.38840  0.27220  Biso   1.000  H
  H94      1.0000 0.95100  0.27220  0.38840  Biso   1.000  H
  H95      1.0000 0.27220  0.95100  0.38840  Biso   1.000  H
  H96      1.0000 0.38840  0.38840  0.95100  Biso   1.000  H
  C1       1.0000 0.76916  0.91562  0.01112  Biso   1.000  C
  C2       1.0000 0.79089  0.85993  0.02223  Biso   1.000  C
  C3       1.0000 0.76622  0.83884  0.02660  Biso   1.000  C
  C4       1.0000 0.91562  0.76916  0.30410  Biso   1.000  C
  C5       1.0000 0.85993  0.79089  0.32695  Biso   1.000  C
  C6       1.0000 0.83884  0.76622  0.36834  Biso   1.000  C
  C7       1.0000 0.01112  0.30410  0.76916  Biso   1.000  C
  C8       1.0000 0.02223  0.32695  0.79089  Biso   1.000  C
  C9       1.0000 0.02660  0.36834  0.76622  Biso   1.000  C
  C10      1.0000 0.30410  0.01112  0.91562  Biso   1.000  C
  C11      1.0000 0.32695  0.02223  0.85993  Biso   1.000  C
  C12      1.0000 0.36834  0.02660  0.83884  Biso   1.000  C
  C13      1.0000 0.76916  0.01112  0.30410  Biso   1.000  C
  C14      1.0000 0.79089  0.02223  0.32695  Biso   1.000  C
  C15      1.0000 0.76622  0.02660  0.36834  Biso   1.000  C
  C16      1.0000 0.91562  0.30410  0.01112  Biso   1.000  C
  C17      1.0000 0.85993  0.32695  0.02223  Biso   1.000  C
  C18      1.0000 0.83884  0.36834  0.02660  Biso   1.000  C
  C19      1.0000 0.01112  0.76916  0.91562  Biso   1.000  C
  C20      1.0000 0.02223  0.79089  0.85993  Biso   1.000  C
  C21      1.0000 0.02660  0.76622  0.83884  Biso   1.000  C
  C22      1.0000 0.30410  0.91562  0.76916  Biso   1.000  C
  C23      1.0000 0.32695  0.85993  0.79089  Biso   1.000  C
  C24      1.0000 0.36834  0.83884  0.76622  Biso   1.000  C
  C25      1.0000 0.76916  0.30410  0.91562  Biso   1.000  C
  C26      1.0000 0.79089  0.32695  0.85993  Biso   1.000  C
  C27      1.0000 0.76622  0.36834  0.83884  Biso   1.000  C
  C28      1.0000 0.91562  0.01112  0.76916  Biso   1.000  C
  C29      1.0000 0.85993  0.02223  0.79089  Biso   1.000  C
  C30      1.0000 0.83884  0.02660  0.76622  Biso   1.000  C
  C31      1.0000 0.01112  0.91562  0.30410  Biso   1.000  C
  C32      1.0000 0.02223  0.85993  0.32695  Biso   1.000  C
  C33      1.0000 0.02660  0.83884  0.36834  Biso   1.000  C
  C34      1.0000 0.30410  0.76916  0.01112  Biso   1.000  C
  C35      1.0000 0.32695  0.79089  0.02223  Biso   1.000  C
  C36      1.0000 0.36834  0.76622  0.02660  Biso   1.000  C
  C37      1.0000 0.08438  0.23084  0.98888  Biso   1.000  C
  C38      1.0000 0.14007  0.20911  0.97777  Biso   1.000  C
  C39      1.0000 0.16116  0.23378  0.97340  Biso   1.000  C
  C40      1.0000 0.23084  0.08438  0.69590  Biso   1.000  C
  C41      1.0000 0.20911  0.14007  0.67305  Biso   1.000  C
  C42      1.0000 0.23378  0.16116  0.63166  Biso   1.000  C
  C43      1.0000 0.69590  0.98888  0.23084  Biso   1.000  C
  C44      1.0000 0.67305  0.97777  0.20911  Biso   1.000  C
  C45      1.0000 0.63166  0.97340  0.23378  Biso   1.000  C
  C46      1.0000 0.98888  0.69590  0.08438  Biso   1.000  C
  C47      1.0000 0.97777  0.67305  0.14007  Biso   1.000  C
  C48      1.0000 0.97340  0.63166  0.16116  Biso   1.000  C
  C49      1.0000 0.98888  0.23084  0.69590  Biso   1.000  C
  C50      1.0000 0.97777  0.20911  0.67305  Biso   1.000  C
  C51      1.0000 0.97340  0.23378  0.63166  Biso   1.000  C
  C52      1.0000 0.69590  0.08438  0.98888  Biso   1.000  C
  C53      1.0000 0.67305  0.14007  0.97777  Biso   1.000  C
  C54      1.0000 0.63166  0.16116  0.97340  Biso   1.000  C
  C55      1.0000 0.23084  0.98888  0.08438  Biso   1.000  C
  C56      1.0000 0.20911  0.97777  0.14007  Biso   1.000  C
  C57      1.0000 0.23378  0.97340  0.16116  Biso   1.000  C
  C58      1.0000 0.08438  0.69590  0.23084  Biso   1.000  C
  C59      1.0000 0.14007  0.67305  0.20911  Biso   1.000  C
  C60      1.0000 0.16116  0.63166  0.23378  Biso   1.000  C
  C61      1.0000 0.69590  0.23084  0.08438  Biso   1.000  C
  C62      1.0000 0.67305  0.20911  0.14007  Biso   1.000  C
  C63      1.0000 0.63166  0.23378  0.16116  Biso   1.000  C
  C64      1.0000 0.98888  0.08438  0.23084  Biso   1.000  C
  C65      1.0000 0.97777  0.14007  0.20911  Biso   1.000  C
  C66      1.0000 0.97340  0.16116  0.23378  Biso   1.000  C
  C67      1.0000 0.08438  0.98888  0.69590  Biso   1.000  C
  C68      1.0000 0.14007  0.97777  0.67305  Biso   1.000  C
  C69      1.0000 0.16116  0.97340  0.63166  Biso   1.000  C
  C70      1.0000 0.23084  0.69590  0.98888  Biso   1.000  C
  C71      1.0000 0.20911  0.67305  0.97777  Biso   1.000  C
  C72      1.0000 0.23378  0.63166  0.97340  Biso   1.000  C
  C73      1.0000 0.23084  0.08438  0.98888  Biso   1.000  C
  C74      1.0000 0.20911  0.14007  0.97777  Biso   1.000  C
  C75      1.0000 0.23378  0.16116  0.97340  Biso   1.000  C
  C76      1.0000 0.08438  0.23084  0.69590  Biso   1.000  C
  C77      1.0000 0.14007  0.20911  0.67305  Biso   1.000  C
  C78      1.0000 0.16116  0.23378  0.63166  Biso   1.000  C
  C79      1.0000 0.98888  0.69590  0.23084  Biso   1.000  C
  C80      1.0000 0.97777  0.67305  0.20911  Biso   1.000  C
  C81      1.0000 0.97340  0.63166  0.23378  Biso   1.000  C
  C82      1.0000 0.69590  0.98888  0.08438  Biso   1.000  C
  C83      1.0000 0.67305  0.97777  0.14007  Biso   1.000  C
  C84      1.0000 0.63166  0.97340  0.16116  Biso   1.000  C
  C85      1.0000 0.23084  0.98888  0.69590  Biso   1.000  C
  C86      1.0000 0.20911  0.97777  0.67305  Biso   1.000  C
  C87      1.0000 0.23378  0.97340  0.63166  Biso   1.000  C
  C88      1.0000 0.08438  0.69590  0.98888  Biso   1.000  C
  C89      1.0000 0.14007  0.67305  0.97777  Biso   1.000  C
  C90      1.0000 0.16116  0.63166  0.97340  Biso   1.000  C
  C91      1.0000 0.98888  0.23084  0.08438  Biso   1.000  C
  C92      1.0000 0.97777  0.20911  0.14007  Biso   1.000  C
  C93      1.0000 0.97340  0.23378  0.16116  Biso   1.000  C
  C94      1.0000 0.69590  0.08438  0.23084  Biso   1.000  C
  C95      1.0000 0.67305  0.14007  0.20911  Biso   1.000  C
  C96      1.0000 0.63166  0.16116  0.23378  Biso   1.000  C
  C97      1.0000 0.23084  0.69590  0.08438  Biso   1.000  C
  C98      1.0000 0.20911  0.67305  0.14007  Biso   1.000  C
  C99      1.0000 0.23378  0.63166  0.16116  Biso   1.000  C
  C100     1.0000 0.08438  0.98888  0.23084  Biso   1.000  C
  C101     1.0000 0.14007  0.97777  0.20911  Biso   1.000  C
  C102     1.0000 0.16116  0.97340  0.23378  Biso   1.000  C
  C103     1.0000 0.98888  0.08438  0.69590  Biso   1.000  C
  C104     1.0000 0.97777  0.14007  0.67305  Biso   1.000  C
  C105     1.0000 0.97340  0.16116  0.63166  Biso   1.000  C
  C106     1.0000 0.69590  0.23084  0.98888  Biso   1.000  C
  C107     1.0000 0.67305  0.20911  0.97777  Biso   1.000  C
  C108     1.0000 0.63166  0.23378  0.97340  Biso   1.000  C
  C109     1.0000 0.91562  0.76916  0.01112  Biso   1.000  C
  C110     1.0000 0.85993  0.79089  0.02223  Biso   1.000  C
  C111     1.0000 0.83884  0.76622  0.02660  Biso   1.000  C
  C112     1.0000 0.76916  0.91562  0.30410  Biso   1.000  C
  C113     1.0000 0.79089  0.85993  0.32695  Biso   1.000  C
  C114     1.0000 0.76622  0.83884  0.36834  Biso   1.000  C
  C115     1.0000 0.30410  0.01112  0.76916  Biso   1.000  C
  C116     1.0000 0.32695  0.02223  0.79089  Biso   1.000  C
  C117     1.0000 0.36834  0.02660  0.76622  Biso   1.000  C
  C118     1.0000 0.01112  0.30410  0.91562  Biso   1.000  C
  C119     1.0000 0.02223  0.32695  0.85993  Biso   1.000  C
  C120     1.0000 0.02660  0.36834  0.83884  Biso   1.000  C
  C121     1.0000 0.01112  0.76916  0.30410  Biso   1.000  C
  C122     1.0000 0.02223  0.79089  0.32695  Biso   1.000  C
  C123     1.0000 0.02660  0.76622  0.36834  Biso   1.000  C
  C124     1.0000 0.30410  0.91562  0.01112  Biso   1.000  C
  C125     1.0000 0.32695  0.85993  0.02223  Biso   1.000  C
  C126     1.0000 0.36834  0.83884  0.02660  Biso   1.000  C
  C127     1.0000 0.76916  0.01112  0.91562  Biso   1.000  C
  C128     1.0000 0.79089  0.02223  0.85993  Biso   1.000  C
  C129     1.0000 0.76622  0.02660  0.83884  Biso   1.000  C
  C130     1.0000 0.91562  0.30410  0.76916  Biso   1.000  C
  C131     1.0000 0.85993  0.32695  0.79089  Biso   1.000  C
  C132     1.0000 0.83884  0.36834  0.76622  Biso   1.000  C
  C133     1.0000 0.30410  0.76916  0.91562  Biso   1.000  C
  C134     1.0000 0.32695  0.79089  0.85993  Biso   1.000  C
  C135     1.0000 0.36834  0.76622  0.83884  Biso   1.000  C
  C136     1.0000 0.01112  0.91562  0.76916  Biso   1.000  C
  C137     1.0000 0.02223  0.85993  0.79089  Biso   1.000  C
  C138     1.0000 0.02660  0.83884  0.76622  Biso   1.000  C
  C139     1.0000 0.91562  0.01112  0.30410  Biso   1.000  C
  C140     1.0000 0.85993  0.02223  0.32695  Biso   1.000  C
  C141     1.0000 0.83884  0.02660  0.36834  Biso   1.000  C
  C142     1.0000 0.76916  0.30410  0.01112  Biso   1.000  C
  C143     1.0000 0.79089  0.32695  0.02223  Biso   1.000  C
  C144     1.0000 0.76622  0.36834  0.02660  Biso   1.000  C
  C145     1.0000 0.83908  0.83908  0.01704  Biso   1.000  C
  C146     1.0000 0.78790  0.78790  0.03510  Biso   1.000  C
  C147     1.0000 0.76250  0.76250  0.03718  Biso   1.000  C
  C148     1.0000 0.74050  0.74050  0.04510  Biso   1.000  C
  C149     1.0000 0.71760  0.71760  0.04560  Biso   1.000  C
  C150     1.0000 0.69550  0.69550  0.05330  Biso   1.000  C
  C151     1.0000 0.67070  0.67070  0.05590  Biso   1.000  C
  C152     1.0000 0.83908  0.83908  0.30480  Biso   1.000  C
  C153     1.0000 0.78790  0.78790  0.38910  Biso   1.000  C
  C154     1.0000 0.76250  0.76250  0.43782  Biso   1.000  C
  C155     1.0000 0.74050  0.74050  0.47390  Biso   1.000  C
  C156     1.0000 0.71760  0.71760  0.51920  Biso   1.000  C
  C157     1.0000 0.69550  0.69550  0.55570  Biso   1.000  C
  C158     1.0000 0.67070  0.67070  0.60270  Biso   1.000  C
  C159     1.0000 0.01704  0.30480  0.83908  Biso   1.000  C
  C160     1.0000 0.03510  0.38910  0.78790  Biso   1.000  C
  C161     1.0000 0.03718  0.43782  0.76250  Biso   1.000  C
  C162     1.0000 0.04510  0.47390  0.74050  Biso   1.000  C
  C163     1.0000 0.04560  0.51920  0.71760  Biso   1.000  C
  C164     1.0000 0.05330  0.55570  0.69550  Biso   1.000  C
  C165     1.0000 0.05590  0.60270  0.67070  Biso   1.000  C
  C166     1.0000 0.30480  0.01704  0.83908  Biso   1.000  C
  C167     1.0000 0.38910  0.03510  0.78790  Biso   1.000  C
  C168     1.0000 0.43782  0.03718  0.76250  Biso   1.000  C
  C169     1.0000 0.47390  0.04510  0.74050  Biso   1.000  C
  C170     1.0000 0.51920  0.04560  0.71760  Biso   1.000  C
  C171     1.0000 0.55570  0.05330  0.69550  Biso   1.000  C
  C172     1.0000 0.60270  0.05590  0.67070  Biso   1.000  C
  C173     1.0000 0.83908  0.01704  0.30480  Biso   1.000  C
  C174     1.0000 0.78790  0.03510  0.38910  Biso   1.000  C
  C175     1.0000 0.76250  0.03718  0.43782  Biso   1.000  C
  C176     1.0000 0.74050  0.04510  0.47390  Biso   1.000  C
  C177     1.0000 0.71760  0.04560  0.51920  Biso   1.000  C
  C178     1.0000 0.69550  0.05330  0.55570  Biso   1.000  C
  C179     1.0000 0.67070  0.05590  0.60270  Biso   1.000  C
  C180     1.0000 0.83908  0.30480  0.01704  Biso   1.000  C
  C181     1.0000 0.78790  0.38910  0.03510  Biso   1.000  C
  C182     1.0000 0.76250  0.43782  0.03718  Biso   1.000  C
  C183     1.0000 0.74050  0.47390  0.04510  Biso   1.000  C
  C184     1.0000 0.71760  0.51920  0.04560  Biso   1.000  C
  C185     1.0000 0.69550  0.55570  0.05330  Biso   1.000  C
  C186     1.0000 0.67070  0.60270  0.05590  Biso   1.000  C
  C187     1.0000 0.01704  0.83908  0.83908  Biso   1.000  C
  C188     1.0000 0.03510  0.78790  0.78790  Biso   1.000  C
  C189     1.0000 0.03718  0.76250  0.76250  Biso   1.000  C
  C190     1.0000 0.04510  0.74050  0.74050  Biso   1.000  C
  C191     1.0000 0.04560  0.71760  0.71760  Biso   1.000  C
  C192     1.0000 0.05330  0.69550  0.69550  Biso   1.000  C
  C193     1.0000 0.05590  0.67070  0.67070  Biso   1.000  C
  C194     1.0000 0.30480  0.83908  0.83908  Biso   1.000  C
  C195     1.0000 0.38910  0.78790  0.78790  Biso   1.000  C
  C196     1.0000 0.43782  0.76250  0.76250  Biso   1.000  C
  C197     1.0000 0.47390  0.74050  0.74050  Biso   1.000  C
  C198     1.0000 0.51920  0.71760  0.71760  Biso   1.000  C
  C199     1.0000 0.55570  0.69550  0.69550  Biso   1.000  C
  C200     1.0000 0.60270  0.67070  0.67070  Biso   1.000  C
  C201     1.0000 0.83908  0.30480  0.83908  Biso   1.000  C
  C202     1.0000 0.78790  0.38910  0.78790  Biso   1.000  C
  C203     1.0000 0.76250  0.43782  0.76250  Biso   1.000  C
  C204     1.0000 0.74050  0.47390  0.74050  Biso   1.000  C
  C205     1.0000 0.71760  0.51920  0.71760  Biso   1.000  C
  C206     1.0000 0.69550  0.55570  0.69550  Biso   1.000  C
  C207     1.0000 0.67070  0.60270  0.67070  Biso   1.000  C
  C208     1.0000 0.83908  0.01704  0.83908  Biso   1.000  C
  C209     1.0000 0.78790  0.03510  0.78790  Biso   1.000  C
  C210     1.0000 0.76250  0.03718  0.76250  Biso   1.000  C
  C211     1.0000 0.74050  0.04510  0.74050  Biso   1.000  C
  C212     1.0000 0.71760  0.04560  0.71760  Biso   1.000  C
  C213     1.0000 0.69550  0.05330  0.69550  Biso   1.000  C
  C214     1.0000 0.67070  0.05590  0.67070  Biso   1.000  C
  C215     1.0000 0.01704  0.83908  0.30480  Biso   1.000  C
  C216     1.0000 0.03510  0.78790  0.38910  Biso   1.000  C
  C217     1.0000 0.03718  0.76250  0.43782  Biso   1.000  C
  C218     1.0000 0.04510  0.74050  0.47390  Biso   1.000  C
  C219     1.0000 0.04560  0.71760  0.51920  Biso   1.000  C
  C220     1.0000 0.05330  0.69550  0.55570  Biso   1.000  C
  C221     1.0000 0.05590  0.67070  0.60270  Biso   1.000  C
  C222     1.0000 0.30480  0.83908  0.01704  Biso   1.000  C
  C223     1.0000 0.38910  0.78790  0.03510  Biso   1.000  C
  C224     1.0000 0.43782  0.76250  0.03718  Biso   1.000  C
  C225     1.0000 0.47390  0.74050  0.04510  Biso   1.000  C
  C226     1.0000 0.51920  0.71760  0.04560  Biso   1.000  C
  C227     1.0000 0.55570  0.69550  0.05330  Biso   1.000  C
  C228     1.0000 0.60270  0.67070  0.05590  Biso   1.000  C
  C229     1.0000 0.16092  0.16092  0.98296  Biso   1.000  C
  C230     1.0000 0.21210  0.21210  0.96490  Biso   1.000  C
  C231     1.0000 0.23750  0.23750  0.96282  Biso   1.000  C
  C232     1.0000 0.25950  0.25950  0.95490  Biso   1.000  C
  C233     1.0000 0.28240  0.28240  0.95440  Biso   1.000  C
  C234     1.0000 0.30450  0.30450  0.94670  Biso   1.000  C
  C235     1.0000 0.32930  0.32930  0.94410  Biso   1.000  C
  C236     1.0000 0.16092  0.16092  0.69520  Biso   1.000  C
  C237     1.0000 0.21210  0.21210  0.61090  Biso   1.000  C
  C238     1.0000 0.23750  0.23750  0.56218  Biso   1.000  C
  C239     1.0000 0.25950  0.25950  0.52610  Biso   1.000  C
  C240     1.0000 0.28240  0.28240  0.48080  Biso   1.000  C
  C241     1.0000 0.30450  0.30450  0.44430  Biso   1.000  C
  C242     1.0000 0.32930  0.32930  0.39730  Biso   1.000  C
  C243     1.0000 0.69520  0.98296  0.16092  Biso   1.000  C
  C244     1.0000 0.61090  0.96490  0.21210  Biso   1.000  C
  C245     1.0000 0.56218  0.96282  0.23750  Biso   1.000  C
  C246     1.0000 0.52610  0.95490  0.25950  Biso   1.000  C
  C247     1.0000 0.48080  0.95440  0.28240  Biso   1.000  C
  C248     1.0000 0.44430  0.94670  0.30450  Biso   1.000  C
  C249     1.0000 0.39730  0.94410  0.32930  Biso   1.000  C
  C250     1.0000 0.98296  0.69520  0.16092  Biso   1.000  C
  C251     1.0000 0.96490  0.61090  0.21210  Biso   1.000  C
  C252     1.0000 0.96282  0.56218  0.23750  Biso   1.000  C
  C253     1.0000 0.95490  0.52610  0.25950  Biso   1.000  C
  C254     1.0000 0.95440  0.48080  0.28240  Biso   1.000  C
  C255     1.0000 0.94670  0.44430  0.30450  Biso   1.000  C
  C256     1.0000 0.94410  0.39730  0.32930  Biso   1.000  C
  C257     1.0000 0.98296  0.16092  0.69520  Biso   1.000  C
  C258     1.0000 0.96490  0.21210  0.61090  Biso   1.000  C
  C259     1.0000 0.96282  0.23750  0.56218  Biso   1.000  C
  C260     1.0000 0.95490  0.25950  0.52610  Biso   1.000  C
  C261     1.0000 0.95440  0.28240  0.48080  Biso   1.000  C
  C262     1.0000 0.94670  0.30450  0.44430  Biso   1.000  C
  C263     1.0000 0.94410  0.32930  0.39730  Biso   1.000  C
  C264     1.0000 0.69520  0.16092  0.98296  Biso   1.000  C
  C265     1.0000 0.61090  0.21210  0.96490  Biso   1.000  C
  C266     1.0000 0.56218  0.23750  0.96282  Biso   1.000  C
  C267     1.0000 0.52610  0.25950  0.95490  Biso   1.000  C
  C268     1.0000 0.48080  0.28240  0.95440  Biso   1.000  C
  C269     1.0000 0.44430  0.30450  0.94670  Biso   1.000  C
  C270     1.0000 0.39730  0.32930  0.94410  Biso   1.000  C
  C271     1.0000 0.16092  0.98296  0.16092  Biso   1.000  C
  C272     1.0000 0.21210  0.96490  0.21210  Biso   1.000  C
  C273     1.0000 0.23750  0.96282  0.23750  Biso   1.000  C
  C274     1.0000 0.25950  0.95490  0.25950  Biso   1.000  C
  C275     1.0000 0.28240  0.95440  0.28240  Biso   1.000  C
  C276     1.0000 0.30450  0.94670  0.30450  Biso   1.000  C
  C277     1.0000 0.32930  0.94410  0.32930  Biso   1.000  C
  C278     1.0000 0.16092  0.69520  0.16092  Biso   1.000  C
  C279     1.0000 0.21210  0.61090  0.21210  Biso   1.000  C
  C280     1.0000 0.23750  0.56218  0.23750  Biso   1.000  C
  C281     1.0000 0.25950  0.52610  0.25950  Biso   1.000  C
  C282     1.0000 0.28240  0.48080  0.28240  Biso   1.000  C
  C283     1.0000 0.30450  0.44430  0.30450  Biso   1.000  C
  C284     1.0000 0.32930  0.39730  0.32930  Biso   1.000  C
  C285     1.0000 0.69520  0.16092  0.16092  Biso   1.000  C
  C286     1.0000 0.61090  0.21210  0.21210  Biso   1.000  C
  C287     1.0000 0.56218  0.23750  0.23750  Biso   1.000  C
  C288     1.0000 0.52610  0.25950  0.25950  Biso   1.000  C
  C289     1.0000 0.48080  0.28240  0.28240  Biso   1.000  C
  C290     1.0000 0.44430  0.30450  0.30450  Biso   1.000  C
  C291     1.0000 0.39730  0.32930  0.32930  Biso   1.000  C
  C292     1.0000 0.98296  0.16092  0.16092  Biso   1.000  C
  C293     1.0000 0.96490  0.21210  0.21210  Biso   1.000  C
  C294     1.0000 0.96282  0.23750  0.23750  Biso   1.000  C
  C295     1.0000 0.95490  0.25950  0.25950  Biso   1.000  C
  C296     1.0000 0.95440  0.28240  0.28240  Biso   1.000  C
  C297     1.0000 0.94670  0.30450  0.30450  Biso   1.000  C
  C298     1.0000 0.94410  0.32930  0.32930  Biso   1.000  C
  C299     1.0000 0.16092  0.98296  0.69520  Biso   1.000  C
  C300     1.0000 0.21210  0.96490  0.61090  Biso   1.000  C
  C301     1.0000 0.23750  0.96282  0.56218  Biso   1.000  C
  C302     1.0000 0.25950  0.95490  0.52610  Biso   1.000  C
  C303     1.0000 0.28240  0.95440  0.48080  Biso   1.000  C
  C304     1.0000 0.30450  0.94670  0.44430  Biso   1.000  C
  C305     1.0000 0.32930  0.94410  0.39730  Biso   1.000  C
  C306     1.0000 0.16092  0.69520  0.98296  Biso   1.000  C
  C307     1.0000 0.21210  0.61090  0.96490  Biso   1.000  C
  C308     1.0000 0.23750  0.56218  0.96282  Biso   1.000  C
  C309     1.0000 0.25950  0.52610  0.95490  Biso   1.000  C
  C310     1.0000 0.28240  0.48080  0.95440  Biso   1.000  C
  C311     1.0000 0.30450  0.44430  0.94670  Biso   1.000  C
  C312     1.0000 0.32930  0.39730  0.94410  Biso   1.000  C
  C313     1.0000 0.62590  0.69530  0.05290  Biso   1.000  C
  C314     1.0000 0.69530  0.62590  0.62590  Biso   1.000  C
  C315     1.0000 0.05290  0.62590  0.62590  Biso   1.000  C
  C316     1.0000 0.62590  0.05290  0.69530  Biso   1.000  C
  C317     1.0000 0.62590  0.05290  0.62590  Biso   1.000  C
  C318     1.0000 0.69530  0.62590  0.05290  Biso   1.000  C
  C319     1.0000 0.05290  0.62590  0.69530  Biso   1.000  C
  C320     1.0000 0.62590  0.69530  0.62590  Biso   1.000  C
  C321     1.0000 0.62590  0.62590  0.69530  Biso   1.000  C
  C322     1.0000 0.69530  0.05290  0.62590  Biso   1.000  C
  C323     1.0000 0.05290  0.69530  0.62590  Biso   1.000  C
  C324     1.0000 0.62590  0.62590  0.05290  Biso   1.000  C
  C325     1.0000 0.30470  0.37410  0.94710  Biso   1.000  C
  C326     1.0000 0.37410  0.30470  0.37410  Biso   1.000  C
  C327     1.0000 0.37410  0.94710  0.37410  Biso   1.000  C
  C328     1.0000 0.94710  0.37410  0.30470  Biso   1.000  C
  C329     1.0000 0.94710  0.37410  0.37410  Biso   1.000  C
  C330     1.0000 0.37410  0.30470  0.94710  Biso   1.000  C
  C331     1.0000 0.37410  0.94710  0.30470  Biso   1.000  C
  C332     1.0000 0.30470  0.37410  0.37410  Biso   1.000  C
  C333     1.0000 0.37410  0.37410  0.30470  Biso   1.000  C
  C334     1.0000 0.94710  0.30470  0.37410  Biso   1.000  C
  C335     1.0000 0.30470  0.94710  0.37410  Biso   1.000  C
  C336     1.0000 0.37410  0.37410  0.94710  Biso   1.000  C
  O1       1.0000 0.79238  0.93262  0.01122  Biso   1.000  O
  O2       1.0000 0.72792  0.93152  0.01086  Biso   1.000  O
  O3       1.0000 0.93262  0.79238  0.26378  Biso   1.000  O
  O4       1.0000 0.93152  0.72792  0.32970  Biso   1.000  O
  O5       1.0000 0.01122  0.26378  0.79238  Biso   1.000  O
  O6       1.0000 0.01086  0.32970  0.72792  Biso   1.000  O
  O7       1.0000 0.26378  0.01122  0.93262  Biso   1.000  O
  O8       1.0000 0.32970  0.01086  0.93152  Biso   1.000  O
  O9       1.0000 0.79238  0.01122  0.26378  Biso   1.000  O
  O10      1.0000 0.72792  0.01086  0.32970  Biso   1.000  O
  O11      1.0000 0.93262  0.26378  0.01122  Biso   1.000  O
  O12      1.0000 0.93152  0.32970  0.01086  Biso   1.000  O
  O13      1.0000 0.01122  0.79238  0.93262  Biso   1.000  O
  O14      1.0000 0.01086  0.72792  0.93152  Biso   1.000  O
  O15      1.0000 0.26378  0.93262  0.79238  Biso   1.000  O
  O16      1.0000 0.32970  0.93152  0.72792  Biso   1.000  O
  O17      1.0000 0.79238  0.26378  0.93262  Biso   1.000  O
  O18      1.0000 0.72792  0.32970  0.93152  Biso   1.000  O
  O19      1.0000 0.93262  0.01122  0.79238  Biso   1.000  O
  O20      1.0000 0.93152  0.01086  0.72792  Biso   1.000  O
  O21      1.0000 0.01122  0.93262  0.26378  Biso   1.000  O
  O22      1.0000 0.01086  0.93152  0.32970  Biso   1.000  O
  O23      1.0000 0.26378  0.79238  0.01122  Biso   1.000  O
  O24      1.0000 0.32970  0.72792  0.01086  Biso   1.000  O
  O25      1.0000 0.06738  0.20762  0.98878  Biso   1.000  O
  O26      1.0000 0.06848  0.27208  0.98914  Biso   1.000  O
  O27      1.0000 0.20762  0.06738  0.73622  Biso   1.000  O
  O28      1.0000 0.27208  0.06848  0.67030  Biso   1.000  O
  O29      1.0000 0.73622  0.98878  0.20762  Biso   1.000  O
  O30      1.0000 0.67030  0.98914  0.27208  Biso   1.000  O
  O31      1.0000 0.98878  0.73622  0.06738  Biso   1.000  O
  O32      1.0000 0.98914  0.67030  0.06848  Biso   1.000  O
  O33      1.0000 0.98878  0.20762  0.73622  Biso   1.000  O
  O34      1.0000 0.98914  0.27208  0.67030  Biso   1.000  O
  O35      1.0000 0.73622  0.06738  0.98878  Biso   1.000  O
  O36      1.0000 0.67030  0.06848  0.98914  Biso   1.000  O
  O37      1.0000 0.20762  0.98878  0.06738  Biso   1.000  O
  O38      1.0000 0.27208  0.98914  0.06848  Biso   1.000  O
  O39      1.0000 0.06738  0.73622  0.20762  Biso   1.000  O
  O40      1.0000 0.06848  0.67030  0.27208  Biso   1.000  O
  O41      1.0000 0.73622  0.20762  0.06738  Biso   1.000  O
  O42      1.0000 0.67030  0.27208  0.06848  Biso   1.000  O
  O43      1.0000 0.98878  0.06738  0.20762  Biso   1.000  O
  O44      1.0000 0.98914  0.06848  0.27208  Biso   1.000  O
  O45      1.0000 0.06738  0.98878  0.73622  Biso   1.000  O
  O46      1.0000 0.06848  0.98914  0.67030  Biso   1.000  O
  O47      1.0000 0.20762  0.73622  0.98878  Biso   1.000  O
  O48      1.0000 0.27208  0.67030  0.98914  Biso   1.000  O
  O49      1.0000 0.20762  0.06738  0.98878  Biso   1.000  O
  O50      1.0000 0.27208  0.06848  0.98914  Biso   1.000  O
  O51      1.0000 0.06738  0.20762  0.73622  Biso   1.000  O
  O52      1.0000 0.06848  0.27208  0.67030  Biso   1.000  O
  O53      1.0000 0.98878  0.73622  0.20762  Biso   1.000  O
  O54      1.0000 0.98914  0.67030  0.27208  Biso   1.000  O
  O55      1.0000 0.73622  0.98878  0.06738  Biso   1.000  O
  O56      1.0000 0.67030  0.98914  0.06848  Biso   1.000  O
  O57      1.0000 0.20762  0.98878  0.73622  Biso   1.000  O
  O58      1.0000 0.27208  0.98914  0.67030  Biso   1.000  O
  O59      1.0000 0.06738  0.73622  0.98878  Biso   1.000  O
  O60      1.0000 0.06848  0.67030  0.98914  Biso   1.000  O
  O61      1.0000 0.98878  0.20762  0.06738  Biso   1.000  O
  O62      1.0000 0.98914  0.27208  0.06848  Biso   1.000  O
  O63      1.0000 0.73622  0.06738  0.20762  Biso   1.000  O
  O64      1.0000 0.67030  0.06848  0.27208  Biso   1.000  O
  O65      1.0000 0.20762  0.73622  0.06738  Biso   1.000  O
  O66      1.0000 0.27208  0.67030  0.06848  Biso   1.000  O
  O67      1.0000 0.06738  0.98878  0.20762  Biso   1.000  O
  O68      1.0000 0.06848  0.98914  0.27208  Biso   1.000  O
  O69      1.0000 0.98878  0.06738  0.73622  Biso   1.000  O
  O70      1.0000 0.98914  0.06848  0.67030  Biso   1.000  O
  O71      1.0000 0.73622  0.20762  0.98878  Biso   1.000  O
  O72      1.0000 0.67030  0.27208  0.98914  Biso   1.000  O
  O73      1.0000 0.93262  0.79238  0.01122  Biso   1.000  O
  O74      1.0000 0.93152  0.72792  0.01086  Biso   1.000  O
  O75      1.0000 0.79238  0.93262  0.26378  Biso   1.000  O
  O76      1.0000 0.72792  0.93152  0.32970  Biso   1.000  O
  O77      1.0000 0.26378  0.01122  0.79238  Biso   1.000  O
  O78      1.0000 0.32970  0.01086  0.72792  Biso   1.000  O
  O79      1.0000 0.01122  0.26378  0.93262  Biso   1.000  O
  O80      1.0000 0.01086  0.32970  0.93152  Biso   1.000  O
  O81      1.0000 0.01122  0.79238  0.26378  Biso   1.000  O
  O82      1.0000 0.01086  0.72792  0.32970  Biso   1.000  O
  O83      1.0000 0.26378  0.93262  0.01122  Biso   1.000  O
  O84      1.0000 0.32970  0.93152  0.01086  Biso   1.000  O
  O85      1.0000 0.79238  0.01122  0.93262  Biso   1.000  O
  O86      1.0000 0.72792  0.01086  0.93152  Biso   1.000  O
  O87      1.0000 0.93262  0.26378  0.79238  Biso   1.000  O
  O88      1.0000 0.93152  0.32970  0.72792  Biso   1.000  O
  O89      1.0000 0.26378  0.79238  0.93262  Biso   1.000  O
  O90      1.0000 0.32970  0.72792  0.93152  Biso   1.000  O
  O91      1.0000 0.01122  0.93262  0.79238  Biso   1.000  O
  O92      1.0000 0.01086  0.93152  0.72792  Biso   1.000  O
  O93      1.0000 0.93262  0.01122  0.26378  Biso   1.000  O
  O94      1.0000 0.93152  0.01086  0.32970  Biso   1.000  O
  O95      1.0000 0.79238  0.26378  0.01122  Biso   1.000  O
  O96      1.0000 0.72792  0.32970  0.01086  Biso   1.000  O
