data_image0
_cell_length_a       19.0822
_cell_length_b       19.0822
_cell_length_c       18.1272
_cell_angle_alpha    90
_cell_angle_beta     90
_cell_angle_gamma    90

_symmetry_space_group_name_H-M    "P 1"
_symmetry_int_tables_number       1

loop_
  _symmetry_equiv_pos_as_xyz
  'x, y, z'

loop_
  _atom_site_label
  _atom_site_occupancy
  _atom_site_fract_x
  _atom_site_fract_y
  _atom_site_fract_z
  _atom_site_thermal_displace_type
  _atom_site_B_iso_or_equiv
  _atom_site_type_symbol
  C1       1.0000 0.34855  0.00000  0.50000  Biso   1.000  C
  C2       1.0000 0.65145  0.00000  0.50000  Biso   1.000  C
  C3       1.0000 0.00000  0.65145  0.50000  Biso   1.000  C
  C4       1.0000 0.00000  0.34855  0.50000  Biso   1.000  C
  C5       1.0000 0.50000  0.84855  0.00000  Biso   1.000  C
  C6       1.0000 0.50000  0.15145  0.00000  Biso   1.000  C
  C7       1.0000 0.15145  0.50000  0.00000  Biso   1.000  C
  C8       1.0000 0.84855  0.50000  0.00000  Biso   1.000  C
  C9       1.0000 0.92671  0.50000  0.00000  Biso   1.000  C
  C10      1.0000 0.07329  0.50000  0.00000  Biso   1.000  C
  C11      1.0000 0.50000  0.07329  0.00000  Biso   1.000  C
  C12      1.0000 0.50000  0.92671  0.00000  Biso   1.000  C
  C13      1.0000 0.00000  0.42671  0.50000  Biso   1.000  C
  C14      1.0000 0.00000  0.57329  0.50000  Biso   1.000  C
  C15      1.0000 0.57329  0.00000  0.50000  Biso   1.000  C
  C16      1.0000 0.42671  0.00000  0.50000  Biso   1.000  C
  C17      1.0000 0.96354  0.56372  0.00000  Biso   1.000  C
  C18      1.0000 0.03646  0.43628  0.00000  Biso   1.000  C
  C19      1.0000 0.56372  0.03646  0.00000  Biso   1.000  C
  C20      1.0000 0.43628  0.96354  0.00000  Biso   1.000  C
  C21      1.0000 0.56372  0.96354  0.00000  Biso   1.000  C
  C22      1.0000 0.43628  0.03646  0.00000  Biso   1.000  C
  C23      1.0000 0.96354  0.43628  0.00000  Biso   1.000  C
  C24      1.0000 0.03646  0.56372  0.00000  Biso   1.000  C
  C25      1.0000 0.53646  0.06372  0.50000  Biso   1.000  C
  C26      1.0000 0.46354  0.93628  0.50000  Biso   1.000  C
  C27      1.0000 0.93628  0.53646  0.50000  Biso   1.000  C
  C28      1.0000 0.06372  0.46354  0.50000  Biso   1.000  C
  C29      1.0000 0.93628  0.46354  0.50000  Biso   1.000  C
  C30      1.0000 0.06372  0.53646  0.50000  Biso   1.000  C
  C31      1.0000 0.53646  0.93628  0.50000  Biso   1.000  C
  C32      1.0000 0.46354  0.06372  0.50000  Biso   1.000  C
  C33      1.0000 0.22548  0.22548  0.31801  Biso   1.000  C
  C34      1.0000 0.77452  0.77452  0.68199  Biso   1.000  C
  C35      1.0000 0.22548  0.22548  0.68199  Biso   1.000  C
  C36      1.0000 0.77452  0.77452  0.31801  Biso   1.000  C
  C37      1.0000 0.22548  0.77452  0.31801  Biso   1.000  C
  C38      1.0000 0.77452  0.22548  0.68199  Biso   1.000  C
  C39      1.0000 0.22548  0.77452  0.68199  Biso   1.000  C
  C40      1.0000 0.77452  0.22548  0.31801  Biso   1.000  C
  C41      1.0000 0.27452  0.72548  0.81801  Biso   1.000  C
  C42      1.0000 0.72548  0.27452  0.18199  Biso   1.000  C
  C43      1.0000 0.27452  0.72548  0.18199  Biso   1.000  C
  C44      1.0000 0.72548  0.27452  0.81801  Biso   1.000  C
  C45      1.0000 0.27452  0.27452  0.81801  Biso   1.000  C
  C46      1.0000 0.72548  0.72548  0.18199  Biso   1.000  C
  C47      1.0000 0.27452  0.27452  0.18199  Biso   1.000  C
  C48      1.0000 0.72548  0.72548  0.81801  Biso   1.000  C
  C49      1.0000 0.69859  0.69859  0.89008  Biso   1.000  C
  C50      1.0000 0.30141  0.30141  0.10992  Biso   1.000  C
  C51      1.0000 0.69859  0.69859  0.10992  Biso   1.000  C
  C52      1.0000 0.30141  0.30141  0.89008  Biso   1.000  C
  C53      1.0000 0.69859  0.30141  0.89008  Biso   1.000  C
  C54      1.0000 0.30141  0.69859  0.10992  Biso   1.000  C
  C55      1.0000 0.69859  0.30141  0.10992  Biso   1.000  C
  C56      1.0000 0.30141  0.69859  0.89008  Biso   1.000  C
  C57      1.0000 0.80141  0.19859  0.39008  Biso   1.000  C
  C58      1.0000 0.19859  0.80141  0.60993  Biso   1.000  C
  C59      1.0000 0.80141  0.19859  0.60993  Biso   1.000  C
  C60      1.0000 0.19859  0.80141  0.39008  Biso   1.000  C
  C61      1.0000 0.80141  0.80141  0.39008  Biso   1.000  C
  C62      1.0000 0.19859  0.19859  0.60993  Biso   1.000  C
  C63      1.0000 0.80141  0.80141  0.60993  Biso   1.000  C
  C64      1.0000 0.19859  0.19859  0.39008  Biso   1.000  C
  C65      1.0000 0.19278  0.28284  0.28381  Biso   1.000  C
  C66      1.0000 0.80722  0.71716  0.71619  Biso   1.000  C
  C67      1.0000 0.19278  0.28284  0.71619  Biso   1.000  C
  C68      1.0000 0.80722  0.71716  0.28381  Biso   1.000  C
  C69      1.0000 0.28284  0.80722  0.28381  Biso   1.000  C
  C70      1.0000 0.71716  0.19278  0.71619  Biso   1.000  C
  C71      1.0000 0.28284  0.80722  0.71619  Biso   1.000  C
  C72      1.0000 0.71716  0.19278  0.28381  Biso   1.000  C
  C73      1.0000 0.28284  0.19278  0.71619  Biso   1.000  C
  C74      1.0000 0.71716  0.80722  0.28381  Biso   1.000  C
  C75      1.0000 0.28284  0.19278  0.28381  Biso   1.000  C
  C76      1.0000 0.71716  0.80722  0.71619  Biso   1.000  C
  C77      1.0000 0.19278  0.71716  0.71619  Biso   1.000  C
  C78      1.0000 0.80722  0.28284  0.28381  Biso   1.000  C
  C79      1.0000 0.19278  0.71716  0.28381  Biso   1.000  C
  C80      1.0000 0.80722  0.28284  0.71619  Biso   1.000  C
  C81      1.0000 0.30722  0.78284  0.21619  Biso   1.000  C
  C82      1.0000 0.69278  0.21716  0.78381  Biso   1.000  C
  C83      1.0000 0.30722  0.78284  0.78381  Biso   1.000  C
  C84      1.0000 0.69278  0.21716  0.21619  Biso   1.000  C
  C85      1.0000 0.21716  0.30722  0.21619  Biso   1.000  C
  C86      1.0000 0.78284  0.69278  0.78381  Biso   1.000  C
  C87      1.0000 0.21716  0.30722  0.78381  Biso   1.000  C
  C88      1.0000 0.78284  0.69278  0.21619  Biso   1.000  C
  C89      1.0000 0.21716  0.69278  0.78381  Biso   1.000  C
  C90      1.0000 0.78284  0.30722  0.21619  Biso   1.000  C
  C91      1.0000 0.21716  0.69278  0.21619  Biso   1.000  C
  C92      1.0000 0.78284  0.30722  0.78381  Biso   1.000  C
  C93      1.0000 0.30722  0.21716  0.78381  Biso   1.000  C
  C94      1.0000 0.69278  0.78284  0.21619  Biso   1.000  C
  C95      1.0000 0.30722  0.21716  0.21619  Biso   1.000  C
  C96      1.0000 0.69278  0.78284  0.78381  Biso   1.000  C
  H1       1.0000 0.85176  0.69247  0.68902  Biso   1.000  H
  H2       1.0000 0.14824  0.30753  0.31098  Biso   1.000  H
  H3       1.0000 0.85176  0.69247  0.31098  Biso   1.000  H
  H4       1.0000 0.14824  0.30753  0.68902  Biso   1.000  H
  H5       1.0000 0.69247  0.14824  0.68902  Biso   1.000  H
  H6       1.0000 0.30753  0.85176  0.31098  Biso   1.000  H
  H7       1.0000 0.69247  0.14824  0.31098  Biso   1.000  H
  H8       1.0000 0.30753  0.85176  0.68902  Biso   1.000  H
  H9       1.0000 0.14824  0.69247  0.31098  Biso   1.000  H
  H10      1.0000 0.85176  0.30753  0.68902  Biso   1.000  H
  H11      1.0000 0.14824  0.69247  0.68902  Biso   1.000  H
  H12      1.0000 0.85176  0.30753  0.31098  Biso   1.000  H
  H13      1.0000 0.30753  0.14824  0.31098  Biso   1.000  H
  H14      1.0000 0.69247  0.85176  0.68902  Biso   1.000  H
  H15      1.0000 0.30753  0.14824  0.68902  Biso   1.000  H
  H16      1.0000 0.69247  0.85176  0.31098  Biso   1.000  H
  H17      1.0000 0.80753  0.35176  0.18902  Biso   1.000  H
  H18      1.0000 0.19247  0.64824  0.81098  Biso   1.000  H
  H19      1.0000 0.80753  0.35176  0.81098  Biso   1.000  H
  H20      1.0000 0.19247  0.64824  0.18902  Biso   1.000  H
  H21      1.0000 0.64824  0.80753  0.18902  Biso   1.000  H
  H22      1.0000 0.35176  0.19247  0.81098  Biso   1.000  H
  H23      1.0000 0.64824  0.80753  0.81098  Biso   1.000  H
  H24      1.0000 0.35176  0.19247  0.18902  Biso   1.000  H
  H25      1.0000 0.19247  0.35176  0.81098  Biso   1.000  H
  H26      1.0000 0.80753  0.64824  0.18902  Biso   1.000  H
  H27      1.0000 0.19247  0.35176  0.18902  Biso   1.000  H
  H28      1.0000 0.80753  0.64824  0.81098  Biso   1.000  H
  H29      1.0000 0.35176  0.80753  0.81098  Biso   1.000  H
  H30      1.0000 0.64824  0.19247  0.18902  Biso   1.000  H
  H31      1.0000 0.35176  0.80753  0.18902  Biso   1.000  H
  H32      1.0000 0.64824  0.19247  0.81098  Biso   1.000  H
  H33      1.0000 0.42620  0.57380  0.00000  Biso   1.000  H
  H34      1.0000 0.57380  0.42620  0.00000  Biso   1.000  H
  H35      1.0000 0.42620  0.42620  0.00000  Biso   1.000  H
  H36      1.0000 0.57380  0.57380  0.00000  Biso   1.000  H
  H37      1.0000 0.92620  0.07380  0.50000  Biso   1.000  H
  H38      1.0000 0.07380  0.92620  0.50000  Biso   1.000  H
  H39      1.0000 0.92620  0.92620  0.50000  Biso   1.000  H
  H40      1.0000 0.07380  0.07380  0.50000  Biso   1.000  H
  H41      1.0000 0.38727  0.06573  0.00000  Biso   1.000  H
  H42      1.0000 0.61274  0.93427  0.00000  Biso   1.000  H
  H43      1.0000 0.06573  0.61274  0.00000  Biso   1.000  H
  H44      1.0000 0.93427  0.38727  0.00000  Biso   1.000  H
  H45      1.0000 0.06573  0.38727  0.00000  Biso   1.000  H
  H46      1.0000 0.93427  0.61274  0.00000  Biso   1.000  H
  H47      1.0000 0.38727  0.93427  0.00000  Biso   1.000  H
  H48      1.0000 0.61274  0.06573  0.00000  Biso   1.000  H
  H49      1.0000 0.11273  0.56573  0.50000  Biso   1.000  H
  H50      1.0000 0.88726  0.43427  0.50000  Biso   1.000  H
  H51      1.0000 0.43427  0.11273  0.50000  Biso   1.000  H
  H52      1.0000 0.56573  0.88726  0.50000  Biso   1.000  H
  H53      1.0000 0.43427  0.88726  0.50000  Biso   1.000  H
  H54      1.0000 0.56573  0.11273  0.50000  Biso   1.000  H
  H55      1.0000 0.11273  0.43427  0.50000  Biso   1.000  H
  H56      1.0000 0.88726  0.56573  0.50000  Biso   1.000  H
  O1       1.0000 0.31690  0.05912  0.50000  Biso   1.000  O
  O2       1.0000 0.68310  0.94088  0.50000  Biso   1.000  O
  O3       1.0000 0.05912  0.68310  0.50000  Biso   1.000  O
  O4       1.0000 0.94088  0.31690  0.50000  Biso   1.000  O
  O5       1.0000 0.05912  0.31690  0.50000  Biso   1.000  O
  O6       1.0000 0.94088  0.68310  0.50000  Biso   1.000  O
  O7       1.0000 0.31690  0.94088  0.50000  Biso   1.000  O
  O8       1.0000 0.68310  0.05912  0.50000  Biso   1.000  O
  O9       1.0000 0.18310  0.55912  0.00000  Biso   1.000  O
  O10      1.0000 0.81690  0.44088  0.00000  Biso   1.000  O
  O11      1.0000 0.44088  0.18310  0.00000  Biso   1.000  O
  O12      1.0000 0.55912  0.81690  0.00000  Biso   1.000  O
  O13      1.0000 0.44088  0.81690  0.00000  Biso   1.000  O
  O14      1.0000 0.55912  0.18310  0.00000  Biso   1.000  O
  O15      1.0000 0.18310  0.44088  0.00000  Biso   1.000  O
  O16      1.0000 0.81690  0.55912  0.00000  Biso   1.000  O
  O17      1.0000 0.69915  0.50000  0.93234  Biso   1.000  O
  O18      1.0000 0.30085  0.50000  0.06766  Biso   1.000  O
  O19      1.0000 0.69915  0.50000  0.06766  Biso   1.000  O
  O20      1.0000 0.30085  0.50000  0.93234  Biso   1.000  O
  O21      1.0000 0.50000  0.30085  0.93234  Biso   1.000  O
  O22      1.0000 0.50000  0.69915  0.06766  Biso   1.000  O
  O23      1.0000 0.50000  0.30085  0.06766  Biso   1.000  O
  O24      1.0000 0.50000  0.69915  0.93234  Biso   1.000  O
  O25      1.0000 0.00000  0.19915  0.43234  Biso   1.000  O
  O26      1.0000 0.00000  0.80085  0.56766  Biso   1.000  O
  O27      1.0000 0.00000  0.19915  0.56766  Biso   1.000  O
  O28      1.0000 0.00000  0.80085  0.43234  Biso   1.000  O
  O29      1.0000 0.80085  0.00000  0.43234  Biso   1.000  O
  O30      1.0000 0.19915  0.00000  0.56766  Biso   1.000  O
  O31      1.0000 0.80085  0.00000  0.56766  Biso   1.000  O
  O32      1.0000 0.19915  0.00000  0.43234  Biso   1.000  O
  O33      1.0000 0.22945  0.14601  0.41889  Biso   1.000  O
  O34      1.0000 0.77055  0.85399  0.58111  Biso   1.000  O
  O35      1.0000 0.22945  0.14601  0.58111  Biso   1.000  O
  O36      1.0000 0.77055  0.85399  0.41889  Biso   1.000  O
  O37      1.0000 0.14601  0.77055  0.41889  Biso   1.000  O
  O38      1.0000 0.85399  0.22945  0.58111  Biso   1.000  O
  O39      1.0000 0.14601  0.77055  0.58111  Biso   1.000  O
  O40      1.0000 0.85399  0.22945  0.41889  Biso   1.000  O
  O41      1.0000 0.14601  0.22945  0.58111  Biso   1.000  O
  O42      1.0000 0.85399  0.77055  0.41889  Biso   1.000  O
  O43      1.0000 0.14601  0.22945  0.41889  Biso   1.000  O
  O44      1.0000 0.85399  0.77055  0.58111  Biso   1.000  O
  O45      1.0000 0.22945  0.85399  0.58111  Biso   1.000  O
  O46      1.0000 0.77055  0.14601  0.41889  Biso   1.000  O
  O47      1.0000 0.22945  0.85399  0.41889  Biso   1.000  O
  O48      1.0000 0.77055  0.14601  0.58111  Biso   1.000  O
  O49      1.0000 0.27055  0.64601  0.08111  Biso   1.000  O
  O50      1.0000 0.72945  0.35399  0.91889  Biso   1.000  O
  O51      1.0000 0.27055  0.64601  0.91889  Biso   1.000  O
  O52      1.0000 0.72945  0.35399  0.08111  Biso   1.000  O
  O53      1.0000 0.35399  0.27055  0.08111  Biso   1.000  O
  O54      1.0000 0.64601  0.72945  0.91889  Biso   1.000  O
  O55      1.0000 0.35399  0.27055  0.91889  Biso   1.000  O
  O56      1.0000 0.64601  0.72945  0.08111  Biso   1.000  O
  O57      1.0000 0.35399  0.72945  0.91889  Biso   1.000  O
  O58      1.0000 0.64601  0.27055  0.08111  Biso   1.000  O
  O59      1.0000 0.35399  0.72945  0.08111  Biso   1.000  O
  O60      1.0000 0.64601  0.27055  0.91889  Biso   1.000  O
  O61      1.0000 0.27055  0.35399  0.91889  Biso   1.000  O
  O62      1.0000 0.72945  0.64601  0.08111  Biso   1.000  O
  O63      1.0000 0.27055  0.35399  0.08111  Biso   1.000  O
  O64      1.0000 0.72945  0.64601  0.91889  Biso   1.000  O
  O65      1.0000 0.10974  0.10974  0.50000  Biso   1.000  O
  O66      1.0000 0.89025  0.89025  0.50000  Biso   1.000  O
  O67      1.0000 0.10974  0.89025  0.50000  Biso   1.000  O
  O68      1.0000 0.89025  0.10974  0.50000  Biso   1.000  O
  O69      1.0000 0.39025  0.60974  0.00000  Biso   1.000  O
  O70      1.0000 0.60974  0.39025  0.00000  Biso   1.000  O
  O71      1.0000 0.39025  0.39025  0.00000  Biso   1.000  O
  O72      1.0000 0.60974  0.60974  0.00000  Biso   1.000  O
  Ti1      1.0000 0.78984  0.07187  0.50000  Biso   1.000  Ti
  Ti2      1.0000 0.21016  0.92813  0.50000  Biso   1.000  Ti
  Ti3      1.0000 0.92813  0.78984  0.50000  Biso   1.000  Ti
  Ti4      1.0000 0.07187  0.21016  0.50000  Biso   1.000  Ti
  Ti5      1.0000 0.92813  0.21016  0.50000  Biso   1.000  Ti
  Ti6      1.0000 0.07187  0.78984  0.50000  Biso   1.000  Ti
  Ti7      1.0000 0.78984  0.92813  0.50000  Biso   1.000  Ti
  Ti8      1.0000 0.21016  0.07187  0.50000  Biso   1.000  Ti
  Ti9      1.0000 0.28984  0.57187  0.00000  Biso   1.000  Ti
  Ti10     1.0000 0.71016  0.42813  0.00000  Biso   1.000  Ti
  Ti11     1.0000 0.42813  0.28984  0.00000  Biso   1.000  Ti
  Ti12     1.0000 0.57187  0.71016  0.00000  Biso   1.000  Ti
  Ti13     1.0000 0.42813  0.71016  0.00000  Biso   1.000  Ti
  Ti14     1.0000 0.57187  0.28984  0.00000  Biso   1.000  Ti
  Ti15     1.0000 0.28984  0.42813  0.00000  Biso   1.000  Ti
  Ti16     1.0000 0.71016  0.57187  0.00000  Biso   1.000  Ti
