data_image0
_cell_length_a       14.2718
_cell_length_b       14.2718
_cell_length_c       14.2718
_cell_angle_alpha    107.072
_cell_angle_beta     107.072
_cell_angle_gamma    107.072

_symmetry_space_group_name_H-M    "P 1"
_symmetry_int_tables_number       1

loop_
  _symmetry_equiv_pos_as_xyz
  'x, y, z'

loop_
  _atom_site_label
  _atom_site_occupancy
  _atom_site_fract_x
  _atom_site_fract_y
  _atom_site_fract_z
  _atom_site_thermal_displace_type
  _atom_site_B_iso_or_equiv
  _atom_site_type_symbol
  Zn1      1.0000 0.75000  0.17801  0.32199  Biso   1.000  Zn
  Zn2      1.0000 0.25000  0.82199  0.67801  Biso   1.000  Zn
  Zn3      1.0000 0.32199  0.75000  0.17801  Biso   1.000  Zn
  Zn4      1.0000 0.67801  0.25000  0.82199  Biso   1.000  Zn
  Zn5      1.0000 0.17801  0.32199  0.75000  Biso   1.000  Zn
  Zn6      1.0000 0.82199  0.67801  0.25000  Biso   1.000  Zn
  Zn7      1.0000 0.75000  0.30961  0.19039  Biso   1.000  Zn
  Zn8      1.0000 0.25000  0.69039  0.80961  Biso   1.000  Zn
  Zn9      1.0000 0.19039  0.75000  0.30961  Biso   1.000  Zn
  Zn10     1.0000 0.80961  0.25000  0.69039  Biso   1.000  Zn
  Zn11     1.0000 0.30961  0.19039  0.75000  Biso   1.000  Zn
  Zn12     1.0000 0.69039  0.80961  0.25000  Biso   1.000  Zn
  H1       1.0000 0.54630  0.99430  0.17020  Biso   1.000  H
  H2       1.0000 0.45370  0.00570  0.82980  Biso   1.000  H
  H3       1.0000 0.17020  0.54630  0.99430  Biso   1.000  H
  H4       1.0000 0.82980  0.45370  0.00570  Biso   1.000  H
  H5       1.0000 0.99430  0.17020  0.54630  Biso   1.000  H
  H6       1.0000 0.00570  0.82980  0.45370  Biso   1.000  H
  H7       1.0000 0.32980  0.50570  0.95370  Biso   1.000  H
  H8       1.0000 0.67020  0.49430  0.04630  Biso   1.000  H
  H9       1.0000 0.50570  0.95370  0.32980  Biso   1.000  H
  H10      1.0000 0.49430  0.04630  0.67020  Biso   1.000  H
  H11      1.0000 0.95370  0.32980  0.50570  Biso   1.000  H
  H12      1.0000 0.04630  0.67020  0.49430  Biso   1.000  H
  C1       1.0000 0.59620  0.07900  0.08840  Biso   1.000  C
  C2       1.0000 0.40380  0.92100  0.91160  Biso   1.000  C
  C3       1.0000 0.08840  0.59620  0.07900  Biso   1.000  C
  C4       1.0000 0.91160  0.40380  0.92100  Biso   1.000  C
  C5       1.0000 0.07900  0.08840  0.59620  Biso   1.000  C
  C6       1.0000 0.92100  0.91160  0.40380  Biso   1.000  C
  C7       1.0000 0.41160  0.42100  0.90380  Biso   1.000  C
  C8       1.0000 0.58840  0.57900  0.09620  Biso   1.000  C
  C9       1.0000 0.42100  0.90380  0.41160  Biso   1.000  C
  C10      1.0000 0.57900  0.09620  0.58840  Biso   1.000  C
  C11      1.0000 0.90380  0.41160  0.42100  Biso   1.000  C
  C12      1.0000 0.09620  0.58840  0.57900  Biso   1.000  C
  C13      1.0000 0.56640  0.08320  0.98620  Biso   1.000  C
  C14      1.0000 0.43360  0.91680  0.01380  Biso   1.000  C
  C15      1.0000 0.98620  0.56640  0.08320  Biso   1.000  C
  C16      1.0000 0.01380  0.43360  0.91680  Biso   1.000  C
  C17      1.0000 0.08320  0.98620  0.56640  Biso   1.000  C
  C18      1.0000 0.91680  0.01380  0.43360  Biso   1.000  C
  C19      1.0000 0.51380  0.41680  0.93360  Biso   1.000  C
  C20      1.0000 0.48620  0.58320  0.06640  Biso   1.000  C
  C21      1.0000 0.41680  0.93360  0.51380  Biso   1.000  C
  C22      1.0000 0.58320  0.06640  0.48620  Biso   1.000  C
  C23      1.0000 0.93360  0.51380  0.41680  Biso   1.000  C
  C24      1.0000 0.06640  0.48620  0.58320  Biso   1.000  C
  C25      1.0000 0.52880  0.99650  0.10300  Biso   1.000  C
  C26      1.0000 0.47120  0.00350  0.89700  Biso   1.000  C
  C27      1.0000 0.10300  0.52880  0.99650  Biso   1.000  C
  C28      1.0000 0.89700  0.47120  0.00350  Biso   1.000  C
  C29      1.0000 0.99650  0.10300  0.52880  Biso   1.000  C
  C30      1.0000 0.00350  0.89700  0.47120  Biso   1.000  C
  C31      1.0000 0.39700  0.50350  0.97120  Biso   1.000  C
  C32      1.0000 0.60300  0.49650  0.02880  Biso   1.000  C
  C33      1.0000 0.50350  0.97120  0.39700  Biso   1.000  C
  C34      1.0000 0.49650  0.02880  0.60300  Biso   1.000  C
  C35      1.0000 0.97120  0.39700  0.50350  Biso   1.000  C
  C36      1.0000 0.02880  0.60300  0.49650  Biso   1.000  C
  C37      1.0000 0.66310  0.13710  0.46290  Biso   1.000  C
  C38      1.0000 0.33690  0.86290  0.53710  Biso   1.000  C
  C39      1.0000 0.46290  0.66310  0.13710  Biso   1.000  C
  C40      1.0000 0.53710  0.33690  0.86290  Biso   1.000  C
  C41      1.0000 0.13710  0.46290  0.66310  Biso   1.000  C
  C42      1.0000 0.86290  0.53710  0.33690  Biso   1.000  C
  C43      1.0000 0.03710  0.36290  0.83690  Biso   1.000  C
  C44      1.0000 0.96290  0.63710  0.16310  Biso   1.000  C
  C45      1.0000 0.36290  0.83690  0.03710  Biso   1.000  C
  C46      1.0000 0.63710  0.16310  0.96290  Biso   1.000  C
  C47      1.0000 0.83690  0.03710  0.36290  Biso   1.000  C
  C48      1.0000 0.16310  0.96290  0.63710  Biso   1.000  C
  O1       1.0000 0.75900  0.19590  0.53200  Biso   1.000  O
  O2       1.0000 0.24100  0.80410  0.46800  Biso   1.000  O
  O3       1.0000 0.53200  0.75900  0.19590  Biso   1.000  O
  O4       1.0000 0.46800  0.24100  0.80410  Biso   1.000  O
  O5       1.0000 0.19590  0.53200  0.75900  Biso   1.000  O
  O6       1.0000 0.80410  0.46800  0.24100  Biso   1.000  O
  O7       1.0000 0.96800  0.30410  0.74100  Biso   1.000  O
  O8       1.0000 0.03200  0.69590  0.25900  Biso   1.000  O
  O9       1.0000 0.30410  0.74100  0.96800  Biso   1.000  O
  O10      1.0000 0.69590  0.25900  0.03200  Biso   1.000  O
  O11      1.0000 0.74100  0.96800  0.30410  Biso   1.000  O
  O12      1.0000 0.25900  0.03200  0.69590  Biso   1.000  O
  O13      1.0000 0.63860  0.13040  0.36600  Biso   1.000  O
  O14      1.0000 0.36140  0.86960  0.63400  Biso   1.000  O
  O15      1.0000 0.36600  0.63860  0.13040  Biso   1.000  O
  O16      1.0000 0.63400  0.36140  0.86960  Biso   1.000  O
  O17      1.0000 0.13040  0.36600  0.63860  Biso   1.000  O
  O18      1.0000 0.86960  0.63400  0.36140  Biso   1.000  O
  O19      1.0000 0.13400  0.36960  0.86140  Biso   1.000  O
  O20      1.0000 0.86600  0.63040  0.13860  Biso   1.000  O
  O21      1.0000 0.36960  0.86140  0.13400  Biso   1.000  O
  O22      1.0000 0.63040  0.13860  0.86600  Biso   1.000  O
  O23      1.0000 0.86140  0.13400  0.36960  Biso   1.000  O
  O24      1.0000 0.13860  0.86600  0.63040  Biso   1.000  O
  O25      1.0000 0.68950  0.15680  0.17170  Biso   1.000  O
  O26      1.0000 0.31050  0.84320  0.82830  Biso   1.000  O
  O27      1.0000 0.17170  0.68950  0.15680  Biso   1.000  O
  O28      1.0000 0.82830  0.31050  0.84320  Biso   1.000  O
  O29      1.0000 0.15680  0.17170  0.68950  Biso   1.000  O
  O30      1.0000 0.84320  0.82830  0.31050  Biso   1.000  O
  O31      1.0000 0.32830  0.34320  0.81050  Biso   1.000  O
  O32      1.0000 0.67170  0.65680  0.18950  Biso   1.000  O
  O33      1.0000 0.34320  0.81050  0.32830  Biso   1.000  O
  O34      1.0000 0.65680  0.18950  0.67170  Biso   1.000  O
  O35      1.0000 0.81050  0.32830  0.34320  Biso   1.000  O
  O36      1.0000 0.18950  0.67170  0.65680  Biso   1.000  O
