data_image0
_cell_length_a       13.4273
_cell_length_b       13.4273
_cell_length_c       39.175
_cell_angle_alpha    90
_cell_angle_beta     90
_cell_angle_gamma    90

_symmetry_space_group_name_H-M    "P 1"
_symmetry_int_tables_number       1

loop_
  _symmetry_equiv_pos_as_xyz
  'x, y, z'

loop_
  _atom_site_label
  _atom_site_occupancy
  _atom_site_fract_x
  _atom_site_fract_y
  _atom_site_fract_z
  _atom_site_thermal_displace_type
  _atom_site_B_iso_or_equiv
  _atom_site_type_symbol
  Ag1      1.0000 0.00000  0.50000  0.09705  Biso   1.000  Ag
  Ag2      1.0000 0.50000  0.00000  0.90295  Biso   1.000  Ag
  Ag3      1.0000 0.50000  0.50000  0.65295  Biso   1.000  Ag
  Ag4      1.0000 0.00000  0.00000  0.84705  Biso   1.000  Ag
  Ag5      1.0000 0.50000  0.00000  0.59705  Biso   1.000  Ag
  Ag6      1.0000 0.00000  0.50000  0.40295  Biso   1.000  Ag
  Ag7      1.0000 0.00000  0.00000  0.15295  Biso   1.000  Ag
  Ag8      1.0000 0.50000  0.50000  0.34705  Biso   1.000  Ag
  Ag9      1.0000 0.86153  0.38295  0.24462  Biso   1.000  Ag
  Ag10     1.0000 0.13847  0.61705  0.24462  Biso   1.000  Ag
  Ag11     1.0000 0.38295  0.13847  0.75538  Biso   1.000  Ag
  Ag12     1.0000 0.61705  0.86153  0.75538  Biso   1.000  Ag
  Ag13     1.0000 0.63847  0.38295  0.50538  Biso   1.000  Ag
  Ag14     1.0000 0.36153  0.61705  0.50538  Biso   1.000  Ag
  Ag15     1.0000 0.11705  0.13847  0.99462  Biso   1.000  Ag
  Ag16     1.0000 0.88295  0.86153  0.99462  Biso   1.000  Ag
  Ag17     1.0000 0.36153  0.88295  0.74462  Biso   1.000  Ag
  Ag18     1.0000 0.63847  0.11705  0.74462  Biso   1.000  Ag
  Ag19     1.0000 0.88295  0.63847  0.25538  Biso   1.000  Ag
  Ag20     1.0000 0.11705  0.36153  0.25538  Biso   1.000  Ag
  Ag21     1.0000 0.13847  0.88295  0.00538  Biso   1.000  Ag
  Ag22     1.0000 0.86153  0.11705  0.00538  Biso   1.000  Ag
  Ag23     1.0000 0.61705  0.63847  0.49462  Biso   1.000  Ag
  Ag24     1.0000 0.38295  0.36153  0.49462  Biso   1.000  Ag
  N1       1.0000 0.00000  0.50000  0.15350  Biso   1.000  N
  N2       1.0000 0.50000  0.00000  0.84650  Biso   1.000  N
  N3       1.0000 0.50000  0.50000  0.59650  Biso   1.000  N
  N4       1.0000 0.00000  0.00000  0.90350  Biso   1.000  N
  N5       1.0000 0.50000  0.00000  0.65350  Biso   1.000  N
  N6       1.0000 0.00000  0.50000  0.34650  Biso   1.000  N
  N7       1.0000 0.00000  0.00000  0.09650  Biso   1.000  N
  N8       1.0000 0.50000  0.50000  0.40350  Biso   1.000  N
  N9       1.0000 0.95160  0.51860  0.20750  Biso   1.000  N
  N10      1.0000 0.04840  0.48140  0.20750  Biso   1.000  N
  N11      1.0000 0.51860  0.04840  0.79250  Biso   1.000  N
  N12      1.0000 0.48140  0.95160  0.79250  Biso   1.000  N
  N13      1.0000 0.54840  0.51860  0.54250  Biso   1.000  N
  N14      1.0000 0.45160  0.48140  0.54250  Biso   1.000  N
  N15      1.0000 0.98140  0.04840  0.95750  Biso   1.000  N
  N16      1.0000 0.01860  0.95160  0.95750  Biso   1.000  N
  N17      1.0000 0.45160  0.01860  0.70750  Biso   1.000  N
  N18      1.0000 0.54840  0.98140  0.70750  Biso   1.000  N
  N19      1.0000 0.01860  0.54840  0.29250  Biso   1.000  N
  N20      1.0000 0.98140  0.45160  0.29250  Biso   1.000  N
  N21      1.0000 0.04840  0.01860  0.04250  Biso   1.000  N
  N22      1.0000 0.95160  0.98140  0.04250  Biso   1.000  N
  N23      1.0000 0.48140  0.54840  0.45750  Biso   1.000  N
  N24      1.0000 0.51860  0.45160  0.45750  Biso   1.000  N
  N25      1.0000 0.00670  0.63290  0.06130  Biso   1.000  N
  N26      1.0000 0.99330  0.36710  0.06130  Biso   1.000  N
  N27      1.0000 0.63290  0.99330  0.93870  Biso   1.000  N
  N28      1.0000 0.36710  0.00670  0.93870  Biso   1.000  N
  N29      1.0000 0.49330  0.63290  0.68870  Biso   1.000  N
  N30      1.0000 0.50670  0.36710  0.68870  Biso   1.000  N
  N31      1.0000 0.86710  0.99330  0.81130  Biso   1.000  N
  N32      1.0000 0.13290  0.00670  0.81130  Biso   1.000  N
  N33      1.0000 0.50670  0.13290  0.56130  Biso   1.000  N
  N34      1.0000 0.49330  0.86710  0.56130  Biso   1.000  N
  N35      1.0000 0.13290  0.49330  0.43870  Biso   1.000  N
  N36      1.0000 0.86710  0.50670  0.43870  Biso   1.000  N
  N37      1.0000 0.99330  0.13290  0.18870  Biso   1.000  N
  N38      1.0000 0.00670  0.86710  0.18870  Biso   1.000  N
  N39      1.0000 0.36710  0.49330  0.31130  Biso   1.000  N
  N40      1.0000 0.63290  0.50670  0.31130  Biso   1.000  N
  N41      1.0000 0.96180  0.74490  0.02250  Biso   1.000  N
  N42      1.0000 0.03820  0.25510  0.02250  Biso   1.000  N
  N43      1.0000 0.74490  0.03820  0.97750  Biso   1.000  N
  N44      1.0000 0.25510  0.96180  0.97750  Biso   1.000  N
  N45      1.0000 0.53820  0.74490  0.72750  Biso   1.000  N
  N46      1.0000 0.46180  0.25510  0.72750  Biso   1.000  N
  N47      1.0000 0.75510  0.03820  0.77250  Biso   1.000  N
  N48      1.0000 0.24490  0.96180  0.77250  Biso   1.000  N
  N49      1.0000 0.46180  0.24490  0.52250  Biso   1.000  N
  N50      1.0000 0.53820  0.75510  0.52250  Biso   1.000  N
  N51      1.0000 0.24490  0.53820  0.47750  Biso   1.000  N
  N52      1.0000 0.75510  0.46180  0.47750  Biso   1.000  N
  N53      1.0000 0.03820  0.24490  0.22750  Biso   1.000  N
  N54      1.0000 0.96180  0.75510  0.22750  Biso   1.000  N
  N55      1.0000 0.25510  0.53820  0.27250  Biso   1.000  N
  N56      1.0000 0.74490  0.46180  0.27250  Biso   1.000  N
  N57      1.0000 0.05890  0.76240  0.03080  Biso   1.000  N
  N58      1.0000 0.94110  0.23760  0.03080  Biso   1.000  N
  N59      1.0000 0.76240  0.94110  0.96920  Biso   1.000  N
  N60      1.0000 0.23760  0.05890  0.96920  Biso   1.000  N
  N61      1.0000 0.44110  0.76240  0.71920  Biso   1.000  N
  N62      1.0000 0.55890  0.23760  0.71920  Biso   1.000  N
  N63      1.0000 0.73760  0.94110  0.78080  Biso   1.000  N
  N64      1.0000 0.26240  0.05890  0.78080  Biso   1.000  N
  N65      1.0000 0.55890  0.26240  0.53080  Biso   1.000  N
  N66      1.0000 0.44110  0.73760  0.53080  Biso   1.000  N
  N67      1.0000 0.26240  0.44110  0.46920  Biso   1.000  N
  N68      1.0000 0.73760  0.55890  0.46920  Biso   1.000  N
  N69      1.0000 0.94110  0.26240  0.21920  Biso   1.000  N
  N70      1.0000 0.05890  0.73760  0.21920  Biso   1.000  N
  N71      1.0000 0.23760  0.44110  0.28080  Biso   1.000  N
  N72      1.0000 0.76240  0.55890  0.28080  Biso   1.000  N
  C1       1.0000 0.92890  0.52930  0.17500  Biso   1.000  C
  C2       1.0000 0.07110  0.47070  0.17500  Biso   1.000  C
  C3       1.0000 0.52930  0.07110  0.82500  Biso   1.000  C
  C4       1.0000 0.47070  0.92890  0.82500  Biso   1.000  C
  C5       1.0000 0.57110  0.52930  0.57500  Biso   1.000  C
  C6       1.0000 0.42890  0.47070  0.57500  Biso   1.000  C
  C7       1.0000 0.97070  0.07110  0.92500  Biso   1.000  C
  C8       1.0000 0.02930  0.92890  0.92500  Biso   1.000  C
  C9       1.0000 0.42890  0.02930  0.67500  Biso   1.000  C
  C10      1.0000 0.57110  0.97070  0.67500  Biso   1.000  C
  C11      1.0000 0.02930  0.57110  0.32500  Biso   1.000  C
  C12      1.0000 0.97070  0.42890  0.32500  Biso   1.000  C
  C13      1.0000 0.07110  0.02930  0.07500  Biso   1.000  C
  C14      1.0000 0.92890  0.97070  0.07500  Biso   1.000  C
  C15      1.0000 0.47070  0.57110  0.42500  Biso   1.000  C
  C16      1.0000 0.52930  0.42890  0.42500  Biso   1.000  C
  C17      1.0000 0.83180  0.57380  0.16420  Biso   1.000  C
  C18      1.0000 0.16820  0.42620  0.16420  Biso   1.000  C
  C19      1.0000 0.57380  0.16820  0.83580  Biso   1.000  C
  C20      1.0000 0.42620  0.83180  0.83580  Biso   1.000  C
  C21      1.0000 0.66820  0.57380  0.58580  Biso   1.000  C
  C22      1.0000 0.33180  0.42620  0.58580  Biso   1.000  C
  C23      1.0000 0.92620  0.16820  0.91420  Biso   1.000  C
  C24      1.0000 0.07380  0.83180  0.91420  Biso   1.000  C
  C25      1.0000 0.33180  0.07380  0.66420  Biso   1.000  C
  C26      1.0000 0.66820  0.92620  0.66420  Biso   1.000  C
  C27      1.0000 0.07380  0.66820  0.33580  Biso   1.000  C
  C28      1.0000 0.92620  0.33180  0.33580  Biso   1.000  C
  C29      1.0000 0.16820  0.07380  0.08580  Biso   1.000  C
  C30      1.0000 0.83180  0.92620  0.08580  Biso   1.000  C
  C31      1.0000 0.42620  0.66820  0.41420  Biso   1.000  C
  C32      1.0000 0.57380  0.33180  0.41420  Biso   1.000  C
  C33      1.0000 0.93680  0.66870  0.04100  Biso   1.000  C
  C34      1.0000 0.06320  0.33130  0.04100  Biso   1.000  C
  C35      1.0000 0.66870  0.06320  0.95900  Biso   1.000  C
  C36      1.0000 0.33130  0.93680  0.95900  Biso   1.000  C
  C37      1.0000 0.56320  0.66870  0.70900  Biso   1.000  C
  C38      1.0000 0.43680  0.33130  0.70900  Biso   1.000  C
  C39      1.0000 0.83130  0.06320  0.79100  Biso   1.000  C
  C40      1.0000 0.16870  0.93680  0.79100  Biso   1.000  C
  C41      1.0000 0.43680  0.16870  0.54100  Biso   1.000  C
  C42      1.0000 0.56320  0.83130  0.54100  Biso   1.000  C
  C43      1.0000 0.16870  0.56320  0.45900  Biso   1.000  C
  C44      1.0000 0.83130  0.43680  0.45900  Biso   1.000  C
  C45      1.0000 0.06320  0.16870  0.20900  Biso   1.000  C
  C46      1.0000 0.93680  0.83130  0.20900  Biso   1.000  C
  C47      1.0000 0.33130  0.56320  0.29100  Biso   1.000  C
  C48      1.0000 0.66870  0.43680  0.29100  Biso   1.000  C
  C49      1.0000 0.08150  0.69350  0.05380  Biso   1.000  C
  C50      1.0000 0.91850  0.30650  0.05380  Biso   1.000  C
  C51      1.0000 0.69350  0.91850  0.94620  Biso   1.000  C
  C52      1.0000 0.30650  0.08150  0.94620  Biso   1.000  C
  C53      1.0000 0.41850  0.69350  0.69620  Biso   1.000  C
  C54      1.0000 0.58150  0.30650  0.69620  Biso   1.000  C
  C55      1.0000 0.80650  0.91850  0.80380  Biso   1.000  C
  C56      1.0000 0.19350  0.08150  0.80380  Biso   1.000  C
  C57      1.0000 0.58150  0.19350  0.55380  Biso   1.000  C
  C58      1.0000 0.41850  0.80650  0.55380  Biso   1.000  C
  C59      1.0000 0.19350  0.41850  0.44620  Biso   1.000  C
  C60      1.0000 0.80650  0.58150  0.44620  Biso   1.000  C
  C61      1.0000 0.91850  0.19350  0.19620  Biso   1.000  C
  C62      1.0000 0.08150  0.80650  0.19620  Biso   1.000  C
  C63      1.0000 0.30650  0.41850  0.30380  Biso   1.000  C
  C64      1.0000 0.69350  0.58150  0.30380  Biso   1.000  C
  C65      1.0000 0.18420  0.69130  0.06960  Biso   1.000  C
  C66      1.0000 0.81580  0.30870  0.06960  Biso   1.000  C
  C67      1.0000 0.69130  0.81580  0.93040  Biso   1.000  C
  C68      1.0000 0.30870  0.18420  0.93040  Biso   1.000  C
  C69      1.0000 0.31580  0.69130  0.68040  Biso   1.000  C
  C70      1.0000 0.68420  0.30870  0.68040  Biso   1.000  C
  C71      1.0000 0.80870  0.81580  0.81960  Biso   1.000  C
  C72      1.0000 0.19130  0.18420  0.81960  Biso   1.000  C
  C73      1.0000 0.68420  0.19130  0.56960  Biso   1.000  C
  C74      1.0000 0.31580  0.80870  0.56960  Biso   1.000  C
  C75      1.0000 0.19130  0.31580  0.43040  Biso   1.000  C
  C76      1.0000 0.80870  0.68420  0.43040  Biso   1.000  C
  C77      1.0000 0.81580  0.19130  0.18040  Biso   1.000  C
  C78      1.0000 0.18420  0.80870  0.18040  Biso   1.000  C
  C79      1.0000 0.30870  0.31580  0.31960  Biso   1.000  C
  C80      1.0000 0.69130  0.68420  0.31960  Biso   1.000  C
  C81      1.0000 0.83380  0.62590  0.03940  Biso   1.000  C
  C82      1.0000 0.16620  0.37410  0.03940  Biso   1.000  C
  C83      1.0000 0.62590  0.16620  0.96060  Biso   1.000  C
  C84      1.0000 0.37410  0.83380  0.96060  Biso   1.000  C
  C85      1.0000 0.66620  0.62590  0.71060  Biso   1.000  C
  C86      1.0000 0.33380  0.37410  0.71060  Biso   1.000  C
  C87      1.0000 0.87410  0.16620  0.78940  Biso   1.000  C
  C88      1.0000 0.12590  0.83380  0.78940  Biso   1.000  C
  C89      1.0000 0.33380  0.12590  0.53940  Biso   1.000  C
  C90      1.0000 0.66620  0.87410  0.53940  Biso   1.000  C
  C91      1.0000 0.12590  0.66620  0.46060  Biso   1.000  C
  C92      1.0000 0.87410  0.33380  0.46060  Biso   1.000  C
  C93      1.0000 0.16620  0.12590  0.21060  Biso   1.000  C
  C94      1.0000 0.83380  0.87410  0.21060  Biso   1.000  C
  C95      1.0000 0.37410  0.66620  0.28940  Biso   1.000  C
  C96      1.0000 0.62590  0.33380  0.28940  Biso   1.000  C
  F1       1.0000 0.84460  0.66280  0.15180  Biso   1.000  F
  F2       1.0000 0.15540  0.33720  0.15180  Biso   1.000  F
  F3       1.0000 0.66280  0.15540  0.84820  Biso   1.000  F
  F4       1.0000 0.33720  0.84460  0.84820  Biso   1.000  F
  F5       1.0000 0.65540  0.66280  0.59820  Biso   1.000  F
  F6       1.0000 0.34460  0.33720  0.59820  Biso   1.000  F
  F7       1.0000 0.83720  0.15540  0.90180  Biso   1.000  F
  F8       1.0000 0.16280  0.84460  0.90180  Biso   1.000  F
  F9       1.0000 0.34460  0.16280  0.65180  Biso   1.000  F
  F10      1.0000 0.65540  0.83720  0.65180  Biso   1.000  F
  F11      1.0000 0.16280  0.65540  0.34820  Biso   1.000  F
  F12      1.0000 0.83720  0.34460  0.34820  Biso   1.000  F
  F13      1.0000 0.15540  0.16280  0.09820  Biso   1.000  F
  F14      1.0000 0.84460  0.83720  0.09820  Biso   1.000  F
  F15      1.0000 0.33720  0.65540  0.40180  Biso   1.000  F
  F16      1.0000 0.66280  0.34460  0.40180  Biso   1.000  F
  F17      1.0000 0.79130  0.52210  0.13980  Biso   1.000  F
  F18      1.0000 0.20870  0.47790  0.13980  Biso   1.000  F
  F19      1.0000 0.52210  0.20870  0.86020  Biso   1.000  F
  F20      1.0000 0.47790  0.79130  0.86020  Biso   1.000  F
  F21      1.0000 0.70870  0.52210  0.61020  Biso   1.000  F
  F22      1.0000 0.29130  0.47790  0.61020  Biso   1.000  F
  F23      1.0000 0.97790  0.20870  0.88980  Biso   1.000  F
  F24      1.0000 0.02210  0.79130  0.88980  Biso   1.000  F
  F25      1.0000 0.29130  0.02210  0.63980  Biso   1.000  F
  F26      1.0000 0.70870  0.97790  0.63980  Biso   1.000  F
  F27      1.0000 0.02210  0.70870  0.36020  Biso   1.000  F
  F28      1.0000 0.97790  0.29130  0.36020  Biso   1.000  F
  F29      1.0000 0.20870  0.02210  0.11020  Biso   1.000  F
  F30      1.0000 0.79130  0.97790  0.11020  Biso   1.000  F
  F31      1.0000 0.47790  0.70870  0.38980  Biso   1.000  F
  F32      1.0000 0.52210  0.29130  0.38980  Biso   1.000  F
  F33      1.0000 0.77100  0.58780  0.18900  Biso   1.000  F
  F34      1.0000 0.22900  0.41220  0.18900  Biso   1.000  F
  F35      1.0000 0.58780  0.22900  0.81100  Biso   1.000  F
  F36      1.0000 0.41220  0.77100  0.81100  Biso   1.000  F
  F37      1.0000 0.72900  0.58780  0.56100  Biso   1.000  F
  F38      1.0000 0.27100  0.41220  0.56100  Biso   1.000  F
  F39      1.0000 0.91220  0.22900  0.93900  Biso   1.000  F
  F40      1.0000 0.08780  0.77100  0.93900  Biso   1.000  F
  F41      1.0000 0.27100  0.08780  0.68900  Biso   1.000  F
  F42      1.0000 0.72900  0.91220  0.68900  Biso   1.000  F
  F43      1.0000 0.08780  0.72900  0.31100  Biso   1.000  F
  F44      1.0000 0.91220  0.27100  0.31100  Biso   1.000  F
  F45      1.0000 0.22900  0.08780  0.06100  Biso   1.000  F
  F46      1.0000 0.77100  0.91220  0.06100  Biso   1.000  F
  F47      1.0000 0.41220  0.72900  0.43900  Biso   1.000  F
  F48      1.0000 0.58780  0.27100  0.43900  Biso   1.000  F
  F49      1.0000 0.21250  0.77930  0.07920  Biso   1.000  F
  F50      1.0000 0.78750  0.22070  0.07920  Biso   1.000  F
  F51      1.0000 0.77930  0.78750  0.92080  Biso   1.000  F
  F52      1.0000 0.22070  0.21250  0.92080  Biso   1.000  F
  F53      1.0000 0.28750  0.77930  0.67080  Biso   1.000  F
  F54      1.0000 0.71250  0.22070  0.67080  Biso   1.000  F
  F55      1.0000 0.72070  0.78750  0.82920  Biso   1.000  F
  F56      1.0000 0.27930  0.21250  0.82920  Biso   1.000  F
  F57      1.0000 0.71250  0.27930  0.57920  Biso   1.000  F
  F58      1.0000 0.28750  0.72070  0.57920  Biso   1.000  F
  F59      1.0000 0.27930  0.28750  0.42080  Biso   1.000  F
  F60      1.0000 0.72070  0.71250  0.42080  Biso   1.000  F
  F61      1.0000 0.78750  0.27930  0.17080  Biso   1.000  F
  F62      1.0000 0.21250  0.72070  0.17080  Biso   1.000  F
  F63      1.0000 0.22070  0.28750  0.32920  Biso   1.000  F
  F64      1.0000 0.77930  0.71250  0.32920  Biso   1.000  F
  F65      1.0000 0.25370  0.67010  0.04640  Biso   1.000  F
  F66      1.0000 0.74630  0.32990  0.04640  Biso   1.000  F
  F67      1.0000 0.67010  0.74630  0.95360  Biso   1.000  F
  F68      1.0000 0.32990  0.25370  0.95360  Biso   1.000  F
  F69      1.0000 0.24630  0.67010  0.70360  Biso   1.000  F
  F70      1.0000 0.75370  0.32990  0.70360  Biso   1.000  F
  F71      1.0000 0.82990  0.74630  0.79640  Biso   1.000  F
  F72      1.0000 0.17010  0.25370  0.79640  Biso   1.000  F
  F73      1.0000 0.75370  0.17010  0.54640  Biso   1.000  F
  F74      1.0000 0.24630  0.82990  0.54640  Biso   1.000  F
  F75      1.0000 0.17010  0.24630  0.45360  Biso   1.000  F
  F76      1.0000 0.82990  0.75370  0.45360  Biso   1.000  F
  F77      1.0000 0.74630  0.17010  0.20360  Biso   1.000  F
  F78      1.0000 0.25370  0.82990  0.20360  Biso   1.000  F
  F79      1.0000 0.32990  0.24630  0.29640  Biso   1.000  F
  F80      1.0000 0.67010  0.75370  0.29640  Biso   1.000  F
  F81      1.0000 0.19460  0.62460  0.09100  Biso   1.000  F
  F82      1.0000 0.80540  0.37540  0.09100  Biso   1.000  F
  F83      1.0000 0.62460  0.80540  0.90900  Biso   1.000  F
  F84      1.0000 0.37540  0.19460  0.90900  Biso   1.000  F
  F85      1.0000 0.30540  0.62460  0.65900  Biso   1.000  F
  F86      1.0000 0.69460  0.37540  0.65900  Biso   1.000  F
  F87      1.0000 0.87540  0.80540  0.84100  Biso   1.000  F
  F88      1.0000 0.12460  0.19460  0.84100  Biso   1.000  F
  F89      1.0000 0.69460  0.12460  0.59100  Biso   1.000  F
  F90      1.0000 0.30540  0.87540  0.59100  Biso   1.000  F
  F91      1.0000 0.12460  0.30540  0.40900  Biso   1.000  F
  F92      1.0000 0.87540  0.69460  0.40900  Biso   1.000  F
  F93      1.0000 0.80540  0.12460  0.15900  Biso   1.000  F
  F94      1.0000 0.19460  0.87540  0.15900  Biso   1.000  F
  F95      1.0000 0.37540  0.30540  0.34100  Biso   1.000  F
  F96      1.0000 0.62460  0.69460  0.34100  Biso   1.000  F
  F97      1.0000 0.79690  0.61010  0.06850  Biso   1.000  F
  F98      1.0000 0.20310  0.38990  0.06850  Biso   1.000  F
  F99      1.0000 0.61010  0.20310  0.93150  Biso   1.000  F
  F100     1.0000 0.38990  0.79690  0.93150  Biso   1.000  F
  F101     1.0000 0.70310  0.61010  0.68150  Biso   1.000  F
  F102     1.0000 0.29690  0.38990  0.68150  Biso   1.000  F
  F103     1.0000 0.88990  0.20310  0.81850  Biso   1.000  F
  F104     1.0000 0.11010  0.79690  0.81850  Biso   1.000  F
  F105     1.0000 0.29690  0.11010  0.56850  Biso   1.000  F
  F106     1.0000 0.70310  0.88990  0.56850  Biso   1.000  F
  F107     1.0000 0.11010  0.70310  0.43150  Biso   1.000  F
  F108     1.0000 0.88990  0.29690  0.43150  Biso   1.000  F
  F109     1.0000 0.20310  0.11010  0.18150  Biso   1.000  F
  F110     1.0000 0.79690  0.88990  0.18150  Biso   1.000  F
  F111     1.0000 0.38990  0.70310  0.31850  Biso   1.000  F
  F112     1.0000 0.61010  0.29690  0.31850  Biso   1.000  F
  F113     1.0000 0.83700  0.53190  0.02730  Biso   1.000  F
  F114     1.0000 0.16300  0.46810  0.02730  Biso   1.000  F
  F115     1.0000 0.53190  0.16300  0.97270  Biso   1.000  F
  F116     1.0000 0.46810  0.83700  0.97270  Biso   1.000  F
  F117     1.0000 0.66300  0.53190  0.72270  Biso   1.000  F
  F118     1.0000 0.33700  0.46810  0.72270  Biso   1.000  F
  F119     1.0000 0.96810  0.16300  0.77730  Biso   1.000  F
  F120     1.0000 0.03190  0.83700  0.77730  Biso   1.000  F
  F121     1.0000 0.33700  0.03190  0.52730  Biso   1.000  F
  F122     1.0000 0.66300  0.96810  0.52730  Biso   1.000  F
  F123     1.0000 0.03190  0.66300  0.47270  Biso   1.000  F
  F124     1.0000 0.96810  0.33700  0.47270  Biso   1.000  F
  F125     1.0000 0.16300  0.03190  0.22270  Biso   1.000  F
  F126     1.0000 0.83700  0.96810  0.22270  Biso   1.000  F
  F127     1.0000 0.46810  0.66300  0.27730  Biso   1.000  F
  F128     1.0000 0.53190  0.33700  0.27730  Biso   1.000  F
  F129     1.0000 0.77210  0.67400  0.02090  Biso   1.000  F
  F130     1.0000 0.22790  0.32600  0.02090  Biso   1.000  F
  F131     1.0000 0.67400  0.22790  0.97910  Biso   1.000  F
  F132     1.0000 0.32600  0.77210  0.97910  Biso   1.000  F
  F133     1.0000 0.72790  0.67400  0.72910  Biso   1.000  F
  F134     1.0000 0.27210  0.32600  0.72910  Biso   1.000  F
  F135     1.0000 0.82600  0.22790  0.77090  Biso   1.000  F
  F136     1.0000 0.17400  0.77210  0.77090  Biso   1.000  F
  F137     1.0000 0.27210  0.17400  0.52090  Biso   1.000  F
  F138     1.0000 0.72790  0.82600  0.52090  Biso   1.000  F
  F139     1.0000 0.17400  0.72790  0.47910  Biso   1.000  F
  F140     1.0000 0.82600  0.27210  0.47910  Biso   1.000  F
  F141     1.0000 0.22790  0.17400  0.22910  Biso   1.000  F
  F142     1.0000 0.77210  0.82600  0.22910  Biso   1.000  F
  F143     1.0000 0.32600  0.72790  0.27090  Biso   1.000  F
  F144     1.0000 0.67400  0.27210  0.27090  Biso   1.000  F
