data_image0
_cell_length_a       14.8174
_cell_length_b       14.8174
_cell_length_c       14.8174
_cell_angle_alpha    60
_cell_angle_beta     60
_cell_angle_gamma    60

_symmetry_space_group_name_H-M    "P 1"
_symmetry_int_tables_number       1

loop_
  _symmetry_equiv_pos_as_xyz
  'x, y, z'

loop_
  _atom_site_label
  _atom_site_occupancy
  _atom_site_fract_x
  _atom_site_fract_y
  _atom_site_fract_z
  _atom_site_thermal_displace_type
  _atom_site_B_iso_or_equiv
  _atom_site_type_symbol
  Zr1      1.0000 0.37630  0.37630  0.62370  Biso   1.000  Zr
  Zr2      1.0000 0.62370  0.62370  0.37630  Biso   1.000  Zr
  Zr3      1.0000 0.37630  0.62370  0.62370  Biso   1.000  Zr
  Zr4      1.0000 0.62370  0.37630  0.37630  Biso   1.000  Zr
  Zr5      1.0000 0.37630  0.62370  0.37630  Biso   1.000  Zr
  Zr6      1.0000 0.62370  0.37630  0.62370  Biso   1.000  Zr
  C1       1.0000 0.05230  0.57750  0.94770  Biso   1.000  C
  C2       1.0000 0.57750  0.05230  0.42250  Biso   1.000  C
  C3       1.0000 0.94770  0.42250  0.05230  Biso   1.000  C
  C4       1.0000 0.42250  0.94770  0.57750  Biso   1.000  C
  C5       1.0000 0.05230  0.94770  0.42250  Biso   1.000  C
  C6       1.0000 0.57750  0.42250  0.94770  Biso   1.000  C
  C7       1.0000 0.94770  0.05230  0.57750  Biso   1.000  C
  C8       1.0000 0.42250  0.57750  0.05230  Biso   1.000  C
  C9       1.0000 0.05230  0.42250  0.57750  Biso   1.000  C
  C10      1.0000 0.57750  0.94770  0.05230  Biso   1.000  C
  C11      1.0000 0.94770  0.57750  0.42250  Biso   1.000  C
  C12      1.0000 0.42250  0.05230  0.94770  Biso   1.000  C
  C13      1.0000 0.42250  0.94770  0.05230  Biso   1.000  C
  C14      1.0000 0.94770  0.42250  0.57750  Biso   1.000  C
  C15      1.0000 0.57750  0.05230  0.94770  Biso   1.000  C
  C16      1.0000 0.05230  0.57750  0.42250  Biso   1.000  C
  C17      1.0000 0.05230  0.94770  0.57750  Biso   1.000  C
  C18      1.0000 0.57750  0.42250  0.05230  Biso   1.000  C
  C19      1.0000 0.94770  0.05230  0.42250  Biso   1.000  C
  C20      1.0000 0.42250  0.57750  0.94770  Biso   1.000  C
  C21      1.0000 0.57750  0.94770  0.42250  Biso   1.000  C
  C22      1.0000 0.05230  0.42250  0.94770  Biso   1.000  C
  C23      1.0000 0.42250  0.05230  0.57750  Biso   1.000  C
  C24      1.0000 0.94770  0.57750  0.05230  Biso   1.000  C
  C25      1.0000 0.18740  0.50000  0.81260  Biso   1.000  C
  C26      1.0000 0.09340  0.50000  0.90660  Biso   1.000  C
  C27      1.0000 0.50000  0.18740  0.50000  Biso   1.000  C
  C28      1.0000 0.50000  0.09340  0.50000  Biso   1.000  C
  C29      1.0000 0.81260  0.50000  0.18740  Biso   1.000  C
  C30      1.0000 0.90660  0.50000  0.09340  Biso   1.000  C
  C31      1.0000 0.50000  0.81260  0.50000  Biso   1.000  C
  C32      1.0000 0.50000  0.90660  0.50000  Biso   1.000  C
  C33      1.0000 0.18740  0.81260  0.50000  Biso   1.000  C
  C34      1.0000 0.09340  0.90660  0.50000  Biso   1.000  C
  C35      1.0000 0.50000  0.50000  0.81260  Biso   1.000  C
  C36      1.0000 0.50000  0.50000  0.90660  Biso   1.000  C
  C37      1.0000 0.81260  0.18740  0.50000  Biso   1.000  C
  C38      1.0000 0.90660  0.09340  0.50000  Biso   1.000  C
  C39      1.0000 0.50000  0.50000  0.18740  Biso   1.000  C
  C40      1.0000 0.50000  0.50000  0.09340  Biso   1.000  C
  C41      1.0000 0.18740  0.50000  0.50000  Biso   1.000  C
  C42      1.0000 0.09340  0.50000  0.50000  Biso   1.000  C
  C43      1.0000 0.50000  0.81260  0.18740  Biso   1.000  C
  C44      1.0000 0.50000  0.90660  0.09340  Biso   1.000  C
  C45      1.0000 0.81260  0.50000  0.50000  Biso   1.000  C
  C46      1.0000 0.90660  0.50000  0.50000  Biso   1.000  C
  C47      1.0000 0.50000  0.18740  0.81260  Biso   1.000  C
  C48      1.0000 0.50000  0.09340  0.90660  Biso   1.000  C
  O1       1.0000 0.28640  0.57120  0.57120  Biso   1.000  O
  O2       1.0000 0.57120  0.28640  0.57120  Biso   1.000  O
  O3       1.0000 0.57120  0.57120  0.28640  Biso   1.000  O
  O4       1.0000 0.57120  0.57120  0.57120  Biso   1.000  O
  O5       1.0000 0.42880  0.71360  0.42880  Biso   1.000  O
  O6       1.0000 0.71360  0.42880  0.42880  Biso   1.000  O
  O7       1.0000 0.42880  0.42880  0.71360  Biso   1.000  O
  O8       1.0000 0.42880  0.42880  0.42880  Biso   1.000  O
  O9       1.0000 0.22690  0.42450  0.77310  Biso   1.000  O
  O10      1.0000 0.42450  0.22690  0.57550  Biso   1.000  O
  O11      1.0000 0.77310  0.57550  0.22690  Biso   1.000  O
  O12      1.0000 0.57550  0.77310  0.42450  Biso   1.000  O
  O13      1.0000 0.22690  0.77310  0.57550  Biso   1.000  O
  O14      1.0000 0.42450  0.57550  0.77310  Biso   1.000  O
  O15      1.0000 0.77310  0.22690  0.42450  Biso   1.000  O
  O16      1.0000 0.57550  0.42450  0.22690  Biso   1.000  O
  O17      1.0000 0.22690  0.57550  0.42450  Biso   1.000  O
  O18      1.0000 0.42450  0.77310  0.22690  Biso   1.000  O
  O19      1.0000 0.77310  0.42450  0.57550  Biso   1.000  O
  O20      1.0000 0.57550  0.22690  0.77310  Biso   1.000  O
  O21      1.0000 0.57550  0.77310  0.22690  Biso   1.000  O
  O22      1.0000 0.77310  0.57550  0.42450  Biso   1.000  O
  O23      1.0000 0.42450  0.22690  0.77310  Biso   1.000  O
  O24      1.0000 0.22690  0.42450  0.57550  Biso   1.000  O
  O25      1.0000 0.22690  0.77310  0.42450  Biso   1.000  O
  O26      1.0000 0.42450  0.57550  0.22690  Biso   1.000  O
  O27      1.0000 0.77310  0.22690  0.57550  Biso   1.000  O
  O28      1.0000 0.57550  0.42450  0.77310  Biso   1.000  O
  O29      1.0000 0.42418  0.77162  0.57690  Biso   1.000  O
  O30      1.0000 0.22690  0.57550  0.77310  Biso   1.000  O
  O31      1.0000 0.57550  0.22690  0.42450  Biso   1.000  O
  O32      1.0000 0.77310  0.42450  0.22690  Biso   1.000  O
  H1       1.0000 0.09077  0.64413  0.90923  Biso   1.000  H
  H2       1.0000 0.64413  0.09077  0.35587  Biso   1.000  H
  H3       1.0000 0.90923  0.35587  0.09077  Biso   1.000  H
  H4       1.0000 0.35587  0.90923  0.64413  Biso   1.000  H
  H5       1.0000 0.09077  0.90923  0.35587  Biso   1.000  H
  H6       1.0000 0.64413  0.35587  0.90923  Biso   1.000  H
  H7       1.0000 0.90923  0.09077  0.64413  Biso   1.000  H
  H8       1.0000 0.35587  0.64413  0.09077  Biso   1.000  H
  H9       1.0000 0.09077  0.35587  0.64413  Biso   1.000  H
  H10      1.0000 0.64413  0.90923  0.09077  Biso   1.000  H
  H11      1.0000 0.90923  0.64413  0.35587  Biso   1.000  H
  H12      1.0000 0.35587  0.09077  0.90923  Biso   1.000  H
  H13      1.0000 0.35587  0.90923  0.09077  Biso   1.000  H
  H14      1.0000 0.90923  0.35587  0.64413  Biso   1.000  H
  H15      1.0000 0.64413  0.09077  0.90923  Biso   1.000  H
  H16      1.0000 0.09077  0.64413  0.35587  Biso   1.000  H
  H17      1.0000 0.09077  0.90923  0.64413  Biso   1.000  H
  H18      1.0000 0.64413  0.35587  0.09077  Biso   1.000  H
  H19      1.0000 0.90923  0.09077  0.35587  Biso   1.000  H
  H20      1.0000 0.35587  0.64413  0.90923  Biso   1.000  H
  H21      1.0000 0.64413  0.90923  0.35587  Biso   1.000  H
  H22      1.0000 0.09077  0.35587  0.90923  Biso   1.000  H
  H23      1.0000 0.35587  0.09077  0.64413  Biso   1.000  H
  H24      1.0000 0.90923  0.64413  0.09077  Biso   1.000  H
  H25      1.0000 0.21263  0.57140  0.60633  Biso   1.000  H
  H26      1.0000 0.61455  0.21196  0.58862  Biso   1.000  H
  H27      1.0000 0.61086  0.59818  0.57103  Biso   1.000  H
  H28      1.0000 0.59613  0.59706  0.21485  Biso   1.000  H
