data_image0
_cell_length_a       18.1507
_cell_length_b       18.1507
_cell_length_c       18.1507
_cell_angle_alpha    60
_cell_angle_beta     60
_cell_angle_gamma    60

_symmetry_space_group_name_H-M    "P 1"
_symmetry_int_tables_number       1

loop_
  _symmetry_equiv_pos_as_xyz
  'x, y, z'

loop_
  _atom_site_label
  _atom_site_occupancy
  _atom_site_fract_x
  _atom_site_fract_y
  _atom_site_fract_z
  _atom_site_thermal_displace_type
  _atom_site_B_iso_or_equiv
  _atom_site_type_symbol
  Zn1      1.0000 0.79350  0.79350  0.79350  Biso   1.000  Zn
  Zn2      1.0000 0.79350  0.79350  0.61950  Biso   1.000  Zn
  Zn3      1.0000 0.79350  0.61950  0.79350  Biso   1.000  Zn
  Zn4      1.0000 0.61950  0.79350  0.79350  Biso   1.000  Zn
  Zn5      1.0000 0.20650  0.20650  0.20650  Biso   1.000  Zn
  Zn6      1.0000 0.20650  0.20650  0.38050  Biso   1.000  Zn
  Zn7      1.0000 0.38050  0.20650  0.20650  Biso   1.000  Zn
  Zn8      1.0000 0.20650  0.38050  0.20650  Biso   1.000  Zn
  H1       1.0000 0.95480  0.95480  0.65700  Biso   1.000  H
  H2       1.0000 0.95480  0.95480  0.43340  Biso   1.000  H
  H3       1.0000 0.65700  0.43340  0.95480  Biso   1.000  H
  H4       1.0000 0.43340  0.65700  0.95480  Biso   1.000  H
  H5       1.0000 0.95480  0.65700  0.43340  Biso   1.000  H
  H6       1.0000 0.95480  0.43340  0.65700  Biso   1.000  H
  H7       1.0000 0.65700  0.95480  0.95480  Biso   1.000  H
  H8       1.0000 0.43340  0.95480  0.95480  Biso   1.000  H
  H9       1.0000 0.95480  0.43340  0.95480  Biso   1.000  H
  H10      1.0000 0.95480  0.65700  0.95480  Biso   1.000  H
  H11      1.0000 0.65700  0.95480  0.43340  Biso   1.000  H
  H12      1.0000 0.43340  0.95480  0.65700  Biso   1.000  H
  H13      1.0000 0.04520  0.04520  0.34300  Biso   1.000  H
  H14      1.0000 0.04520  0.04520  0.56660  Biso   1.000  H
  H15      1.0000 0.56660  0.34300  0.04520  Biso   1.000  H
  H16      1.0000 0.34300  0.56660  0.04520  Biso   1.000  H
  H17      1.0000 0.34300  0.04520  0.56660  Biso   1.000  H
  H18      1.0000 0.56660  0.04520  0.34300  Biso   1.000  H
  H19      1.0000 0.04520  0.34300  0.04520  Biso   1.000  H
  H20      1.0000 0.04520  0.56660  0.04520  Biso   1.000  H
  H21      1.0000 0.56660  0.04520  0.04520  Biso   1.000  H
  H22      1.0000 0.34300  0.04520  0.04520  Biso   1.000  H
  H23      1.0000 0.04520  0.34300  0.56660  Biso   1.000  H
  H24      1.0000 0.04520  0.56660  0.34300  Biso   1.000  H
  C1       1.0000 0.88951  0.88951  0.61049  Biso   1.000  C
  C2       1.0000 0.61049  0.61049  0.88951  Biso   1.000  C
  C3       1.0000 0.88951  0.61049  0.61049  Biso   1.000  C
  C4       1.0000 0.61049  0.88951  0.88951  Biso   1.000  C
  C5       1.0000 0.88951  0.61049  0.88951  Biso   1.000  C
  C6       1.0000 0.61049  0.88951  0.61049  Biso   1.000  C
  C7       1.0000 0.11049  0.11049  0.38951  Biso   1.000  C
  C8       1.0000 0.38951  0.38951  0.11049  Biso   1.000  C
  C9       1.0000 0.38951  0.11049  0.38951  Biso   1.000  C
  C10      1.0000 0.11049  0.38951  0.11049  Biso   1.000  C
  C11      1.0000 0.38951  0.11049  0.11049  Biso   1.000  C
  C12      1.0000 0.11049  0.38951  0.38951  Biso   1.000  C
  C13      1.0000 0.97369  0.97369  0.59249  Biso   1.000  C
  C14      1.0000 0.97369  0.97369  0.46013  Biso   1.000  C
  C15      1.0000 0.59249  0.46013  0.97369  Biso   1.000  C
  C16      1.0000 0.46013  0.59249  0.97369  Biso   1.000  C
  C17      1.0000 0.97369  0.59249  0.46013  Biso   1.000  C
  C18      1.0000 0.97369  0.46013  0.59249  Biso   1.000  C
  C19      1.0000 0.59249  0.97369  0.97369  Biso   1.000  C
  C20      1.0000 0.46013  0.97369  0.97369  Biso   1.000  C
  C21      1.0000 0.97369  0.46013  0.97369  Biso   1.000  C
  C22      1.0000 0.97369  0.59249  0.97369  Biso   1.000  C
  C23      1.0000 0.59249  0.97369  0.46013  Biso   1.000  C
  C24      1.0000 0.46013  0.97369  0.59249  Biso   1.000  C
  C25      1.0000 0.02631  0.02631  0.40751  Biso   1.000  C
  C26      1.0000 0.02631  0.02631  0.53987  Biso   1.000  C
  C27      1.0000 0.53987  0.40751  0.02631  Biso   1.000  C
  C28      1.0000 0.40751  0.53987  0.02631  Biso   1.000  C
  C29      1.0000 0.40751  0.02631  0.53987  Biso   1.000  C
  C30      1.0000 0.53987  0.02631  0.40751  Biso   1.000  C
  C31      1.0000 0.02631  0.40751  0.02631  Biso   1.000  C
  C32      1.0000 0.02631  0.53987  0.02631  Biso   1.000  C
  C33      1.0000 0.53987  0.02631  0.02631  Biso   1.000  C
  C34      1.0000 0.40751  0.02631  0.02631  Biso   1.000  C
  C35      1.0000 0.02631  0.40751  0.53987  Biso   1.000  C
  C36      1.0000 0.02631  0.53987  0.40751  Biso   1.000  C
  C37      1.0000 0.94621  0.94621  0.55379  Biso   1.000  C
  C38      1.0000 0.55379  0.55379  0.94621  Biso   1.000  C
  C39      1.0000 0.94621  0.55379  0.55379  Biso   1.000  C
  C40      1.0000 0.55379  0.94621  0.94621  Biso   1.000  C
  C41      1.0000 0.94621  0.55379  0.94621  Biso   1.000  C
  C42      1.0000 0.55379  0.94621  0.55379  Biso   1.000  C
  C43      1.0000 0.05379  0.05379  0.44621  Biso   1.000  C
  C44      1.0000 0.44621  0.44621  0.05379  Biso   1.000  C
  C45      1.0000 0.44621  0.05379  0.44621  Biso   1.000  C
  C46      1.0000 0.05379  0.44621  0.05379  Biso   1.000  C
  C47      1.0000 0.44621  0.05379  0.05379  Biso   1.000  C
  C48      1.0000 0.05379  0.44621  0.44621  Biso   1.000  C
  O1       1.0000 0.75000  0.75000  0.75000  Biso   1.000  O
  O2       1.0000 0.25000  0.25000  0.25000  Biso   1.000  O
  O3       1.0000 0.86609  0.86609  0.69753  Biso   1.000  O
  O4       1.0000 0.86609  0.86609  0.57029  Biso   1.000  O
  O5       1.0000 0.69753  0.57029  0.86609  Biso   1.000  O
  O6       1.0000 0.57029  0.69753  0.86609  Biso   1.000  O
  O7       1.0000 0.86609  0.69753  0.57029  Biso   1.000  O
  O8       1.0000 0.86609  0.57029  0.69753  Biso   1.000  O
  O9       1.0000 0.69753  0.86609  0.86609  Biso   1.000  O
  O10      1.0000 0.57029  0.86609  0.86609  Biso   1.000  O
  O11      1.0000 0.86609  0.57029  0.86609  Biso   1.000  O
  O12      1.0000 0.86609  0.69753  0.86609  Biso   1.000  O
  O13      1.0000 0.69753  0.86609  0.57029  Biso   1.000  O
  O14      1.0000 0.57029  0.86609  0.69753  Biso   1.000  O
  O15      1.0000 0.13391  0.13391  0.30247  Biso   1.000  O
  O16      1.0000 0.13391  0.13391  0.42971  Biso   1.000  O
  O17      1.0000 0.42971  0.30247  0.13391  Biso   1.000  O
  O18      1.0000 0.30247  0.42971  0.13391  Biso   1.000  O
  O19      1.0000 0.30247  0.13391  0.42971  Biso   1.000  O
  O20      1.0000 0.42971  0.13391  0.30247  Biso   1.000  O
  O21      1.0000 0.13391  0.30247  0.13391  Biso   1.000  O
  O22      1.0000 0.13391  0.42971  0.13391  Biso   1.000  O
  O23      1.0000 0.42971  0.13391  0.13391  Biso   1.000  O
  O24      1.0000 0.30247  0.13391  0.13391  Biso   1.000  O
  O25      1.0000 0.13391  0.30247  0.42971  Biso   1.000  O
  O26      1.0000 0.13391  0.42971  0.30247  Biso   1.000  O
