data_image0
_cell_length_a       23.91
_cell_length_b       23.91
_cell_length_c       23.91
_cell_angle_alpha    90
_cell_angle_beta     90
_cell_angle_gamma    90

_symmetry_space_group_name_H-M    "P 1"
_symmetry_int_tables_number       1

loop_
  _symmetry_equiv_pos_as_xyz
  'x, y, z'

loop_
  _atom_site_label
  _atom_site_occupancy
  _atom_site_fract_x
  _atom_site_fract_y
  _atom_site_fract_z
  _atom_site_thermal_displace_type
  _atom_site_B_iso_or_equiv
  _atom_site_type_symbol
  Zr1      1.0000 0.00000  0.00000  0.10350  Biso   1.000  Zr
  Zr2      1.0000 0.00000  0.00000  0.89650  Biso   1.000  Zr
  Zr3      1.0000 0.10350  0.00000  0.00000  Biso   1.000  Zr
  Zr4      1.0000 0.00000  0.10350  0.00000  Biso   1.000  Zr
  Zr5      1.0000 0.89650  0.00000  0.00000  Biso   1.000  Zr
  Zr6      1.0000 0.00000  0.89650  0.00000  Biso   1.000  Zr
  Zr7      1.0000 0.00000  0.50000  0.60350  Biso   1.000  Zr
  Zr8      1.0000 0.00000  0.50000  0.39650  Biso   1.000  Zr
  Zr9      1.0000 0.10350  0.50000  0.50000  Biso   1.000  Zr
  Zr10     1.0000 0.00000  0.60350  0.50000  Biso   1.000  Zr
  Zr11     1.0000 0.89650  0.50000  0.50000  Biso   1.000  Zr
  Zr12     1.0000 0.00000  0.39650  0.50000  Biso   1.000  Zr
  Zr13     1.0000 0.50000  0.00000  0.60350  Biso   1.000  Zr
  Zr14     1.0000 0.50000  0.00000  0.39650  Biso   1.000  Zr
  Zr15     1.0000 0.60350  0.00000  0.50000  Biso   1.000  Zr
  Zr16     1.0000 0.50000  0.10350  0.50000  Biso   1.000  Zr
  Zr17     1.0000 0.39650  0.00000  0.50000  Biso   1.000  Zr
  Zr18     1.0000 0.50000  0.89650  0.50000  Biso   1.000  Zr
  Zr19     1.0000 0.50000  0.50000  0.10350  Biso   1.000  Zr
  Zr20     1.0000 0.50000  0.50000  0.89650  Biso   1.000  Zr
  Zr21     1.0000 0.60350  0.50000  0.00000  Biso   1.000  Zr
  Zr22     1.0000 0.50000  0.60350  0.00000  Biso   1.000  Zr
  Zr23     1.0000 0.39650  0.50000  0.00000  Biso   1.000  Zr
  Zr24     1.0000 0.50000  0.39650  0.00000  Biso   1.000  Zr
  O1       1.0000 0.04335  0.04335  0.04335  Biso   1.000  O
  O2       1.0000 0.00310  0.07972  0.14440  Biso   1.000  O
  O3       1.0000 0.94151  0.05905  0.05812  Biso   1.000  O
  O4       1.0000 0.95599  0.95663  0.04364  Biso   1.000  O
  O5       1.0000 0.05812  0.94151  0.05905  Biso   1.000  O
  O6       1.0000 0.04364  0.95599  0.95663  Biso   1.000  O
  O7       1.0000 0.05906  0.05813  0.94150  Biso   1.000  O
  O8       1.0000 0.95664  0.04364  0.95599  Biso   1.000  O
  O9       1.0000 0.94155  0.94155  0.94155  Biso   1.000  O
  O10      1.0000 0.04348  0.54387  0.54402  Biso   1.000  O
  O11      1.0000 0.94155  0.55846  0.55878  Biso   1.000  O
  O12      1.0000 0.95655  0.45651  0.54439  Biso   1.000  O
  O13      1.0000 0.05849  0.44194  0.55931  Biso   1.000  O
  O14      1.0000 0.04389  0.45629  0.45705  Biso   1.000  O
  O15      1.0000 0.05839  0.55850  0.44176  Biso   1.000  O
  O16      1.0000 0.95609  0.54343  0.45676  Biso   1.000  O
  O17      1.0000 0.94156  0.44095  0.44220  Biso   1.000  O
  O18      1.0000 0.54328  0.04375  0.54444  Biso   1.000  O
  O19      1.0000 0.44093  0.05819  0.55885  Biso   1.000  O
  O20      1.0000 0.45670  0.95650  0.54382  Biso   1.000  O
  O21      1.0000 0.55840  0.94180  0.55932  Biso   1.000  O
  O22      1.0000 0.54414  0.95646  0.45699  Biso   1.000  O
  O23      1.0000 0.55846  0.05907  0.44219  Biso   1.000  O
  O24      1.0000 0.45652  0.04327  0.45700  Biso   1.000  O
  O25      1.0000 0.44185  0.94094  0.44174  Biso   1.000  O
  O26      1.0000 0.54399  0.54359  0.04261  Biso   1.000  O
  O27      1.0000 0.44158  0.55905  0.05749  Biso   1.000  O
  O28      1.0000 0.45601  0.45641  0.04261  Biso   1.000  O
  O29      1.0000 0.55842  0.44095  0.05749  Biso   1.000  O
  O30      1.0000 0.54336  0.45641  0.95518  Biso   1.000  O
  O31      1.0000 0.55842  0.55814  0.94044  Biso   1.000  O
  O32      1.0000 0.45664  0.54358  0.95518  Biso   1.000  O
  O33      1.0000 0.44158  0.44186  0.94044  Biso   1.000  O
  O34      1.0000 0.92027  0.99800  0.14447  Biso   1.000  O
  O35      1.0000 0.00038  0.91669  0.15274  Biso   1.000  O
  O36      1.0000 0.08337  0.99867  0.15275  Biso   1.000  O
  O37      1.0000 0.00088  0.92018  0.85540  Biso   1.000  O
  O38      1.0000 0.07979  0.99820  0.85544  Biso   1.000  O
  O39      1.0000 0.00030  0.08323  0.84737  Biso   1.000  O
  O40      1.0000 0.91681  0.00053  0.84738  Biso   1.000  O
  O41      1.0000 0.14440  0.00311  0.07973  Biso   1.000  O
  O42      1.0000 0.99868  0.15274  0.08336  Biso   1.000  O
  O43      1.0000 0.84738  0.00029  0.08323  Biso   1.000  O
  O44      1.0000 0.99819  0.85544  0.07979  Biso   1.000  O
  O45      1.0000 0.15275  0.00038  0.91669  Biso   1.000  O
  O46      1.0000 0.99801  0.14448  0.92027  Biso   1.000  O
  O47      1.0000 0.85541  0.00087  0.92019  Biso   1.000  O
  O48      1.0000 0.00052  0.84737  0.91680  Biso   1.000  O
  O49      1.0000 0.07973  0.14441  0.00310  Biso   1.000  O
  O50      1.0000 0.08322  0.84738  0.00029  Biso   1.000  O
  O51      1.0000 0.15275  0.08337  0.99868  Biso   1.000  O
  O52      1.0000 0.91669  0.15274  0.00037  Biso   1.000  O
  O53      1.0000 0.84737  0.91680  0.00053  Biso   1.000  O
  O54      1.0000 0.92018  0.85540  0.00087  Biso   1.000  O
  O55      1.0000 0.14447  0.92028  0.99800  Biso   1.000  O
  O56      1.0000 0.85544  0.07979  0.99820  Biso   1.000  O
  O57      1.0000 0.00206  0.57971  0.64455  Biso   1.000  O
  O58      1.0000 0.91687  0.49955  0.65257  Biso   1.000  O
  O59      1.0000 0.00033  0.41678  0.65265  Biso   1.000  O
  O60      1.0000 0.08325  0.49956  0.65269  Biso   1.000  O
  O61      1.0000 0.00177  0.42018  0.35551  Biso   1.000  O
  O62      1.0000 0.07988  0.49903  0.35534  Biso   1.000  O
  O63      1.0000 0.00040  0.58333  0.34727  Biso   1.000  O
  O64      1.0000 0.92020  0.50217  0.35547  Biso   1.000  O
  O65      1.0000 0.14457  0.50182  0.57982  Biso   1.000  O
  O66      1.0000 0.99991  0.65264  0.58326  Biso   1.000  O
  O67      1.0000 0.85540  0.49911  0.57984  Biso   1.000  O
  O68      1.0000 0.99765  0.35548  0.57976  Biso   1.000  O
  O69      1.0000 0.15258  0.49952  0.41685  Biso   1.000  O
  O70      1.0000 0.99840  0.64451  0.42024  Biso   1.000  O
  O71      1.0000 0.84742  0.49960  0.41682  Biso   1.000  O
  O72      1.0000 0.99950  0.34728  0.41672  Biso   1.000  O
  O73      1.0000 0.08319  0.65263  0.50043  Biso   1.000  O
  O74      1.0000 0.07973  0.35553  0.49795  Biso   1.000  O
  O75      1.0000 0.14459  0.57982  0.50098  Biso   1.000  O
  O76      1.0000 0.92019  0.64459  0.49906  Biso   1.000  O
  O77      1.0000 0.85546  0.42020  0.50197  Biso   1.000  O
  O78      1.0000 0.91669  0.34724  0.49948  Biso   1.000  O
  O79      1.0000 0.15261  0.41678  0.50037  Biso   1.000  O
  O80      1.0000 0.84738  0.58319  0.49953  Biso   1.000  O
  O81      1.0000 0.49958  0.08317  0.65258  Biso   1.000  O
  O82      1.0000 0.42031  0.99695  0.64448  Biso   1.000  O
  O83      1.0000 0.50139  0.91668  0.65269  Biso   1.000  O
  O84      1.0000 0.58317  0.00054  0.65264  Biso   1.000  O
  O85      1.0000 0.50190  0.92014  0.35538  Biso   1.000  O
  O86      1.0000 0.57984  0.99926  0.35548  Biso   1.000  O
  O87      1.0000 0.49673  0.07980  0.35554  Biso   1.000  O
  O88      1.0000 0.41661  0.99867  0.34727  Biso   1.000  O
  O89      1.0000 0.64464  0.00107  0.57984  Biso   1.000  O
  O90      1.0000 0.50207  0.14449  0.57976  Biso   1.000  O
  O91      1.0000 0.34724  0.00111  0.58339  Biso   1.000  O
  O92      1.0000 0.49686  0.85556  0.57975  Biso   1.000  O
  O93      1.0000 0.65261  0.99961  0.41684  Biso   1.000  O
  O94      1.0000 0.50139  0.15270  0.41668  Biso   1.000  O
  O95      1.0000 0.35565  0.00277  0.42032  Biso   1.000  O
  O96      1.0000 0.49958  0.84730  0.41673  Biso   1.000  O
  O97      1.0000 0.58332  0.15276  0.49973  Biso   1.000  O
  O98      1.0000 0.57972  0.85552  0.49813  Biso   1.000  O
  O99      1.0000 0.64456  0.07978  0.50172  Biso   1.000  O
  O100     1.0000 0.42028  0.14442  0.49707  Biso   1.000  O
  O101     1.0000 0.35560  0.92028  0.50301  Biso   1.000  O
  O102     1.0000 0.41662  0.84724  0.49877  Biso   1.000  O
  O103     1.0000 0.65261  0.91678  0.50018  Biso   1.000  O
  O104     1.0000 0.34727  0.08336  0.50113  Biso   1.000  O
  O105     1.0000 0.50191  0.57989  0.14455  Biso   1.000  O
  O106     1.0000 0.42009  0.49911  0.14458  Biso   1.000  O
  O107     1.0000 0.49810  0.42011  0.14456  Biso   1.000  O
  O108     1.0000 0.57991  0.50089  0.14459  Biso   1.000  O
  O109     1.0000 0.49958  0.41684  0.84740  Biso   1.000  O
  O110     1.0000 0.58312  0.49953  0.84742  Biso   1.000  O
  O111     1.0000 0.50042  0.58316  0.84741  Biso   1.000  O
  O112     1.0000 0.41689  0.50047  0.84742  Biso   1.000  O
  O113     1.0000 0.65255  0.50030  0.08311  Biso   1.000  O
  O114     1.0000 0.49943  0.65267  0.08323  Biso   1.000  O
  O115     1.0000 0.34745  0.49970  0.08310  Biso   1.000  O
  O116     1.0000 0.50056  0.34733  0.08323  Biso   1.000  O
  O117     1.0000 0.64465  0.49890  0.92014  Biso   1.000  O
  O118     1.0000 0.49755  0.64452  0.92022  Biso   1.000  O
  O119     1.0000 0.35536  0.50110  0.92015  Biso   1.000  O
  O120     1.0000 0.50244  0.35547  0.92021  Biso   1.000  O
  O121     1.0000 0.57972  0.64447  0.00195  Biso   1.000  O
  O122     1.0000 0.58332  0.34723  0.00045  Biso   1.000  O
  O123     1.0000 0.65259  0.58321  0.99976  Biso   1.000  O
  O124     1.0000 0.41667  0.65278  0.00044  Biso   1.000  O
  O125     1.0000 0.34740  0.41678  0.99976  Biso   1.000  O
  O126     1.0000 0.42028  0.35553  0.00195  Biso   1.000  O
  O127     1.0000 0.64455  0.42021  0.99811  Biso   1.000  O
  O128     1.0000 0.35544  0.57980  0.99812  Biso   1.000  O
  C1       1.0000 0.00000  0.13190  0.13190  Biso   1.000  C
  C2       1.0000 0.00000  0.16790  0.18470  Biso   1.000  C
  C3       1.0000 0.00000  0.22430  0.17740  Biso   1.000  C
  C4       1.0000 0.00000  0.14750  0.23710  Biso   1.000  C
  C5       1.0000 0.00000  0.18040  0.28440  Biso   1.000  C
  C6       1.0000 0.00000  0.23980  0.27660  Biso   1.000  C
  C7       1.0000 0.86810  0.00000  0.13190  Biso   1.000  C
  C8       1.0000 0.00000  0.86810  0.13190  Biso   1.000  C
  C9       1.0000 0.13190  0.00000  0.13190  Biso   1.000  C
  C10      1.0000 0.00000  0.86810  0.86810  Biso   1.000  C
  C11      1.0000 0.13190  0.00000  0.86810  Biso   1.000  C
  C12      1.0000 0.00000  0.13190  0.86810  Biso   1.000  C
  C13      1.0000 0.86810  0.00000  0.86810  Biso   1.000  C
  C14      1.0000 0.13190  0.13190  0.00000  Biso   1.000  C
  C15      1.0000 0.13190  0.86810  0.00000  Biso   1.000  C
  C16      1.0000 0.86810  0.13190  0.00000  Biso   1.000  C
  C17      1.0000 0.86810  0.86810  0.00000  Biso   1.000  C
  C18      1.0000 0.00000  0.63190  0.63190  Biso   1.000  C
  C19      1.0000 0.86810  0.50000  0.63190  Biso   1.000  C
  C20      1.0000 0.00000  0.36810  0.63190  Biso   1.000  C
  C21      1.0000 0.13190  0.50000  0.63190  Biso   1.000  C
  C22      1.0000 0.00000  0.36810  0.36810  Biso   1.000  C
  C23      1.0000 0.13190  0.50000  0.36810  Biso   1.000  C
  C24      1.0000 0.00000  0.63190  0.36810  Biso   1.000  C
  C25      1.0000 0.86810  0.50000  0.36810  Biso   1.000  C
  C26      1.0000 0.13190  0.63190  0.50000  Biso   1.000  C
  C27      1.0000 0.13190  0.36810  0.50000  Biso   1.000  C
  C28      1.0000 0.86810  0.63190  0.50000  Biso   1.000  C
  C29      1.0000 0.86810  0.36810  0.50000  Biso   1.000  C
  C30      1.0000 0.50000  0.13190  0.63190  Biso   1.000  C
  C31      1.0000 0.36810  0.00000  0.63190  Biso   1.000  C
  C32      1.0000 0.50000  0.86810  0.63190  Biso   1.000  C
  C33      1.0000 0.63190  0.00000  0.63190  Biso   1.000  C
  C34      1.0000 0.50000  0.86810  0.36810  Biso   1.000  C
  C35      1.0000 0.63190  0.00000  0.36810  Biso   1.000  C
  C36      1.0000 0.50000  0.13190  0.36810  Biso   1.000  C
  C37      1.0000 0.36810  0.00000  0.36810  Biso   1.000  C
  C38      1.0000 0.63190  0.13190  0.50000  Biso   1.000  C
  C39      1.0000 0.63190  0.86810  0.50000  Biso   1.000  C
  C40      1.0000 0.36810  0.13190  0.50000  Biso   1.000  C
  C41      1.0000 0.36810  0.86810  0.50000  Biso   1.000  C
  C42      1.0000 0.50000  0.63190  0.13190  Biso   1.000  C
  C43      1.0000 0.36810  0.50000  0.13190  Biso   1.000  C
  C44      1.0000 0.50000  0.36810  0.13190  Biso   1.000  C
  C45      1.0000 0.63190  0.50000  0.13190  Biso   1.000  C
  C46      1.0000 0.50000  0.36810  0.86810  Biso   1.000  C
  C47      1.0000 0.63190  0.50000  0.86810  Biso   1.000  C
  C48      1.0000 0.50000  0.63190  0.86810  Biso   1.000  C
  C49      1.0000 0.36810  0.50000  0.86810  Biso   1.000  C
  C50      1.0000 0.63190  0.63190  0.00000  Biso   1.000  C
  C51      1.0000 0.63190  0.36810  0.00000  Biso   1.000  C
  C52      1.0000 0.36810  0.63190  0.00000  Biso   1.000  C
  C53      1.0000 0.36810  0.36810  0.00000  Biso   1.000  C
  C54      1.0000 0.83210  0.00000  0.18470  Biso   1.000  C
  C55      1.0000 0.00000  0.83210  0.81530  Biso   1.000  C
  C56      1.0000 0.16790  0.00000  0.81530  Biso   1.000  C
  C57      1.0000 0.18470  0.00000  0.16790  Biso   1.000  C
  C58      1.0000 0.00000  0.81530  0.16790  Biso   1.000  C
  C59      1.0000 0.00000  0.18470  0.83210  Biso   1.000  C
  C60      1.0000 0.81530  0.00000  0.83210  Biso   1.000  C
  C61      1.0000 0.16790  0.18470  0.00000  Biso   1.000  C
  C62      1.0000 0.83210  0.81530  0.00000  Biso   1.000  C
  C63      1.0000 0.18470  0.83210  0.00000  Biso   1.000  C
  C64      1.0000 0.81530  0.16790  0.00000  Biso   1.000  C
  C65      1.0000 0.00000  0.66790  0.68470  Biso   1.000  C
  C66      1.0000 0.00000  0.33210  0.31530  Biso   1.000  C
  C67      1.0000 0.16790  0.50000  0.31530  Biso   1.000  C
  C68      1.0000 0.83210  0.50000  0.31530  Biso   1.000  C
  C69      1.0000 0.18470  0.50000  0.66790  Biso   1.000  C
  C70      1.0000 0.81530  0.50000  0.66790  Biso   1.000  C
  C71      1.0000 0.00000  0.31530  0.66790  Biso   1.000  C
  C72      1.0000 0.00000  0.68470  0.33210  Biso   1.000  C
  C73      1.0000 0.16790  0.31530  0.50000  Biso   1.000  C
  C74      1.0000 0.18470  0.66790  0.50000  Biso   1.000  C
  C75      1.0000 0.83210  0.68470  0.50000  Biso   1.000  C
  C76      1.0000 0.81530  0.33210  0.50000  Biso   1.000  C
  C77      1.0000 0.33210  0.00000  0.68470  Biso   1.000  C
  C78      1.0000 0.50000  0.83210  0.31530  Biso   1.000  C
  C79      1.0000 0.66790  0.00000  0.31530  Biso   1.000  C
  C80      1.0000 0.50000  0.16790  0.31530  Biso   1.000  C
  C81      1.0000 0.68470  0.00000  0.66790  Biso   1.000  C
  C82      1.0000 0.50000  0.18470  0.66790  Biso   1.000  C
  C83      1.0000 0.50000  0.81530  0.66790  Biso   1.000  C
  C84      1.0000 0.31530  0.00000  0.33210  Biso   1.000  C
  C85      1.0000 0.66790  0.81530  0.50000  Biso   1.000  C
  C86      1.0000 0.68470  0.16790  0.50000  Biso   1.000  C
  C87      1.0000 0.33210  0.18470  0.50000  Biso   1.000  C
  C88      1.0000 0.31530  0.83210  0.50000  Biso   1.000  C
  C89      1.0000 0.50000  0.66790  0.18470  Biso   1.000  C
  C90      1.0000 0.33210  0.50000  0.18470  Biso   1.000  C
  C91      1.0000 0.50000  0.33210  0.18470  Biso   1.000  C
  C92      1.0000 0.66790  0.50000  0.18470  Biso   1.000  C
  C93      1.0000 0.68470  0.50000  0.83210  Biso   1.000  C
  C94      1.0000 0.50000  0.68470  0.83210  Biso   1.000  C
  C95      1.0000 0.31530  0.50000  0.83210  Biso   1.000  C
  C96      1.0000 0.50000  0.31530  0.83210  Biso   1.000  C
  C97      1.0000 0.66790  0.68470  0.00000  Biso   1.000  C
  C98      1.0000 0.33210  0.31530  0.00000  Biso   1.000  C
  C99      1.0000 0.68470  0.33210  0.00000  Biso   1.000  C
  C100     1.0000 0.31530  0.66790  0.00000  Biso   1.000  C
  C101     1.0000 0.77570  0.00000  0.17740  Biso   1.000  C
  C102     1.0000 0.00000  0.77570  0.82260  Biso   1.000  C
  C103     1.0000 0.22430  0.00000  0.82260  Biso   1.000  C
  C104     1.0000 0.17740  0.00000  0.22430  Biso   1.000  C
  C105     1.0000 0.00000  0.82260  0.22430  Biso   1.000  C
  C106     1.0000 0.00000  0.17740  0.77570  Biso   1.000  C
  C107     1.0000 0.82260  0.00000  0.77570  Biso   1.000  C
  C108     1.0000 0.22430  0.17740  0.00000  Biso   1.000  C
  C109     1.0000 0.77570  0.82260  0.00000  Biso   1.000  C
  C110     1.0000 0.17740  0.77570  0.00000  Biso   1.000  C
  C111     1.0000 0.82260  0.22430  0.00000  Biso   1.000  C
  C112     1.0000 0.00000  0.72430  0.67740  Biso   1.000  C
  C113     1.0000 0.00000  0.27570  0.32260  Biso   1.000  C
  C114     1.0000 0.22430  0.50000  0.32260  Biso   1.000  C
  C115     1.0000 0.77570  0.50000  0.32260  Biso   1.000  C
  C116     1.0000 0.17740  0.50000  0.72430  Biso   1.000  C
  C117     1.0000 0.82260  0.50000  0.72430  Biso   1.000  C
  C118     1.0000 0.00000  0.32260  0.72430  Biso   1.000  C
  C119     1.0000 0.00000  0.67740  0.27570  Biso   1.000  C
  C120     1.0000 0.22430  0.32260  0.50000  Biso   1.000  C
  C121     1.0000 0.17740  0.72430  0.50000  Biso   1.000  C
  C122     1.0000 0.77570  0.67740  0.50000  Biso   1.000  C
  C123     1.0000 0.82260  0.27570  0.50000  Biso   1.000  C
  C124     1.0000 0.27570  0.00000  0.67740  Biso   1.000  C
  C125     1.0000 0.50000  0.77570  0.32260  Biso   1.000  C
  C126     1.0000 0.72430  0.00000  0.32260  Biso   1.000  C
  C127     1.0000 0.50000  0.22430  0.32260  Biso   1.000  C
  C128     1.0000 0.67740  0.00000  0.72430  Biso   1.000  C
  C129     1.0000 0.50000  0.17740  0.72430  Biso   1.000  C
  C130     1.0000 0.50000  0.82260  0.72430  Biso   1.000  C
  C131     1.0000 0.32260  0.00000  0.27570  Biso   1.000  C
  C132     1.0000 0.72430  0.82260  0.50000  Biso   1.000  C
  C133     1.0000 0.67740  0.22430  0.50000  Biso   1.000  C
  C134     1.0000 0.27570  0.17740  0.50000  Biso   1.000  C
  C135     1.0000 0.32260  0.77570  0.50000  Biso   1.000  C
  C136     1.0000 0.50000  0.72430  0.17740  Biso   1.000  C
  C137     1.0000 0.27570  0.50000  0.17740  Biso   1.000  C
  C138     1.0000 0.50000  0.27570  0.17740  Biso   1.000  C
  C139     1.0000 0.72430  0.50000  0.17740  Biso   1.000  C
  C140     1.0000 0.67740  0.50000  0.77570  Biso   1.000  C
  C141     1.0000 0.50000  0.67740  0.77570  Biso   1.000  C
  C142     1.0000 0.32260  0.50000  0.77570  Biso   1.000  C
  C143     1.0000 0.50000  0.32260  0.77570  Biso   1.000  C
  C144     1.0000 0.72430  0.67740  0.00000  Biso   1.000  C
  C145     1.0000 0.27570  0.32260  0.00000  Biso   1.000  C
  C146     1.0000 0.67740  0.27570  0.00000  Biso   1.000  C
  C147     1.0000 0.32260  0.72430  0.00000  Biso   1.000  C
  C148     1.0000 0.85250  0.00000  0.23710  Biso   1.000  C
  C149     1.0000 0.00000  0.85250  0.76290  Biso   1.000  C
  C150     1.0000 0.14750  0.00000  0.76290  Biso   1.000  C
  C151     1.0000 0.23710  0.00000  0.14750  Biso   1.000  C
  C152     1.0000 0.00000  0.76290  0.14750  Biso   1.000  C
  C153     1.0000 0.00000  0.23710  0.85250  Biso   1.000  C
  C154     1.0000 0.76290  0.00000  0.85250  Biso   1.000  C
  C155     1.0000 0.14750  0.23710  0.00000  Biso   1.000  C
  C156     1.0000 0.85250  0.76290  0.00000  Biso   1.000  C
  C157     1.0000 0.23710  0.85250  0.00000  Biso   1.000  C
  C158     1.0000 0.76290  0.14750  0.00000  Biso   1.000  C
  C159     1.0000 0.00000  0.64750  0.73710  Biso   1.000  C
  C160     1.0000 0.00000  0.35250  0.26290  Biso   1.000  C
  C161     1.0000 0.14750  0.50000  0.26290  Biso   1.000  C
  C162     1.0000 0.85250  0.50000  0.26290  Biso   1.000  C
  C163     1.0000 0.23710  0.50000  0.64750  Biso   1.000  C
  C164     1.0000 0.76290  0.50000  0.64750  Biso   1.000  C
  C165     1.0000 0.00000  0.26290  0.64750  Biso   1.000  C
  C166     1.0000 0.00000  0.73710  0.35250  Biso   1.000  C
  C167     1.0000 0.14750  0.26290  0.50000  Biso   1.000  C
  C168     1.0000 0.23710  0.64750  0.50000  Biso   1.000  C
  C169     1.0000 0.85250  0.73710  0.50000  Biso   1.000  C
  C170     1.0000 0.76290  0.35250  0.50000  Biso   1.000  C
  C171     1.0000 0.35250  0.00000  0.73710  Biso   1.000  C
  C172     1.0000 0.50000  0.85250  0.26290  Biso   1.000  C
  C173     1.0000 0.64750  0.00000  0.26290  Biso   1.000  C
  C174     1.0000 0.50000  0.14750  0.26290  Biso   1.000  C
  C175     1.0000 0.73710  0.00000  0.64750  Biso   1.000  C
  C176     1.0000 0.50000  0.23710  0.64750  Biso   1.000  C
  C177     1.0000 0.50000  0.76290  0.64750  Biso   1.000  C
  C178     1.0000 0.26290  0.00000  0.35250  Biso   1.000  C
  C179     1.0000 0.64750  0.76290  0.50000  Biso   1.000  C
  C180     1.0000 0.73710  0.14750  0.50000  Biso   1.000  C
  C181     1.0000 0.35250  0.23710  0.50000  Biso   1.000  C
  C182     1.0000 0.26290  0.85250  0.50000  Biso   1.000  C
  C183     1.0000 0.50000  0.64750  0.23710  Biso   1.000  C
  C184     1.0000 0.35250  0.50000  0.23710  Biso   1.000  C
  C185     1.0000 0.50000  0.35250  0.23710  Biso   1.000  C
  C186     1.0000 0.64750  0.50000  0.23710  Biso   1.000  C
  C187     1.0000 0.73710  0.50000  0.85250  Biso   1.000  C
  C188     1.0000 0.50000  0.73710  0.85250  Biso   1.000  C
  C189     1.0000 0.26290  0.50000  0.85250  Biso   1.000  C
  C190     1.0000 0.50000  0.26290  0.85250  Biso   1.000  C
  C191     1.0000 0.64750  0.73710  0.00000  Biso   1.000  C
  C192     1.0000 0.35250  0.26290  0.00000  Biso   1.000  C
  C193     1.0000 0.73710  0.35250  0.00000  Biso   1.000  C
  C194     1.0000 0.26290  0.64750  0.00000  Biso   1.000  C
  C195     1.0000 0.81960  0.00000  0.28440  Biso   1.000  C
  C196     1.0000 0.00000  0.81960  0.71560  Biso   1.000  C
  C197     1.0000 0.18040  0.00000  0.71560  Biso   1.000  C
  C198     1.0000 0.28440  0.00000  0.18040  Biso   1.000  C
  C199     1.0000 0.00000  0.71560  0.18040  Biso   1.000  C
  C200     1.0000 0.00000  0.28440  0.81960  Biso   1.000  C
  C201     1.0000 0.71560  0.00000  0.81960  Biso   1.000  C
  C202     1.0000 0.18040  0.28440  0.00000  Biso   1.000  C
  C203     1.0000 0.81960  0.71560  0.00000  Biso   1.000  C
  C204     1.0000 0.28440  0.81960  0.00000  Biso   1.000  C
  C205     1.0000 0.71560  0.18040  0.00000  Biso   1.000  C
  C206     1.0000 0.00000  0.68040  0.78440  Biso   1.000  C
  C207     1.0000 0.00000  0.31960  0.21560  Biso   1.000  C
  C208     1.0000 0.18040  0.50000  0.21560  Biso   1.000  C
  C209     1.0000 0.81960  0.50000  0.21560  Biso   1.000  C
  C210     1.0000 0.28440  0.50000  0.68040  Biso   1.000  C
  C211     1.0000 0.71560  0.50000  0.68040  Biso   1.000  C
  C212     1.0000 0.00000  0.21560  0.68040  Biso   1.000  C
  C213     1.0000 0.00000  0.78440  0.31960  Biso   1.000  C
  C214     1.0000 0.18040  0.21560  0.50000  Biso   1.000  C
  C215     1.0000 0.28440  0.68040  0.50000  Biso   1.000  C
  C216     1.0000 0.81960  0.78440  0.50000  Biso   1.000  C
  C217     1.0000 0.71560  0.31960  0.50000  Biso   1.000  C
  C218     1.0000 0.31960  0.00000  0.78440  Biso   1.000  C
  C219     1.0000 0.50000  0.81960  0.21560  Biso   1.000  C
  C220     1.0000 0.68040  0.00000  0.21560  Biso   1.000  C
  C221     1.0000 0.50000  0.18040  0.21560  Biso   1.000  C
  C222     1.0000 0.78440  0.00000  0.68040  Biso   1.000  C
  C223     1.0000 0.50000  0.28440  0.68040  Biso   1.000  C
  C224     1.0000 0.50000  0.71560  0.68040  Biso   1.000  C
  C225     1.0000 0.21560  0.00000  0.31960  Biso   1.000  C
  C226     1.0000 0.68040  0.71560  0.50000  Biso   1.000  C
  C227     1.0000 0.78440  0.18040  0.50000  Biso   1.000  C
  C228     1.0000 0.31960  0.28440  0.50000  Biso   1.000  C
  C229     1.0000 0.21560  0.81960  0.50000  Biso   1.000  C
  C230     1.0000 0.50000  0.68040  0.28440  Biso   1.000  C
  C231     1.0000 0.31960  0.50000  0.28440  Biso   1.000  C
  C232     1.0000 0.50000  0.31960  0.28440  Biso   1.000  C
  C233     1.0000 0.68040  0.50000  0.28440  Biso   1.000  C
  C234     1.0000 0.78440  0.50000  0.81960  Biso   1.000  C
  C235     1.0000 0.50000  0.78440  0.81960  Biso   1.000  C
  C236     1.0000 0.21560  0.50000  0.81960  Biso   1.000  C
  C237     1.0000 0.50000  0.21560  0.81960  Biso   1.000  C
  C238     1.0000 0.68040  0.78440  0.00000  Biso   1.000  C
  C239     1.0000 0.31960  0.21560  0.00000  Biso   1.000  C
  C240     1.0000 0.78440  0.31960  0.00000  Biso   1.000  C
  C241     1.0000 0.21560  0.68040  0.00000  Biso   1.000  C
  C242     1.0000 0.76020  0.00000  0.27660  Biso   1.000  C
  C243     1.0000 0.00000  0.76020  0.72340  Biso   1.000  C
  C244     1.0000 0.23980  0.00000  0.72340  Biso   1.000  C
  C245     1.0000 0.27660  0.00000  0.23980  Biso   1.000  C
  C246     1.0000 0.00000  0.72340  0.23980  Biso   1.000  C
  C247     1.0000 0.00000  0.27660  0.76020  Biso   1.000  C
  C248     1.0000 0.72340  0.00000  0.76020  Biso   1.000  C
  C249     1.0000 0.23980  0.27660  0.00000  Biso   1.000  C
  C250     1.0000 0.76020  0.72340  0.00000  Biso   1.000  C
  C251     1.0000 0.27660  0.76020  0.00000  Biso   1.000  C
  C252     1.0000 0.72340  0.23980  0.00000  Biso   1.000  C
  C253     1.0000 0.00000  0.73980  0.77660  Biso   1.000  C
  C254     1.0000 0.00000  0.26020  0.22340  Biso   1.000  C
  C255     1.0000 0.23980  0.50000  0.22340  Biso   1.000  C
  C256     1.0000 0.76020  0.50000  0.22340  Biso   1.000  C
  C257     1.0000 0.27660  0.50000  0.73980  Biso   1.000  C
  C258     1.0000 0.72340  0.50000  0.73980  Biso   1.000  C
  C259     1.0000 0.00000  0.22340  0.73980  Biso   1.000  C
  C260     1.0000 0.00000  0.77660  0.26020  Biso   1.000  C
  C261     1.0000 0.23980  0.22340  0.50000  Biso   1.000  C
  C262     1.0000 0.27660  0.73980  0.50000  Biso   1.000  C
  C263     1.0000 0.76020  0.77660  0.50000  Biso   1.000  C
  C264     1.0000 0.72340  0.26020  0.50000  Biso   1.000  C
  C265     1.0000 0.26020  0.00000  0.77660  Biso   1.000  C
  C266     1.0000 0.50000  0.76020  0.22340  Biso   1.000  C
  C267     1.0000 0.73980  0.00000  0.22340  Biso   1.000  C
  C268     1.0000 0.50000  0.23980  0.22340  Biso   1.000  C
  C269     1.0000 0.77660  0.00000  0.73980  Biso   1.000  C
  C270     1.0000 0.50000  0.27660  0.73980  Biso   1.000  C
  C271     1.0000 0.50000  0.72340  0.73980  Biso   1.000  C
  C272     1.0000 0.22340  0.00000  0.26020  Biso   1.000  C
  C273     1.0000 0.73980  0.72340  0.50000  Biso   1.000  C
  C274     1.0000 0.77660  0.23980  0.50000  Biso   1.000  C
  C275     1.0000 0.26020  0.27660  0.50000  Biso   1.000  C
  C276     1.0000 0.22340  0.76020  0.50000  Biso   1.000  C
  C277     1.0000 0.50000  0.73980  0.27660  Biso   1.000  C
  C278     1.0000 0.26020  0.50000  0.27660  Biso   1.000  C
  C279     1.0000 0.50000  0.26020  0.27660  Biso   1.000  C
  C280     1.0000 0.73980  0.50000  0.27660  Biso   1.000  C
  C281     1.0000 0.77660  0.50000  0.76020  Biso   1.000  C
  C282     1.0000 0.50000  0.77660  0.76020  Biso   1.000  C
  C283     1.0000 0.22340  0.50000  0.76020  Biso   1.000  C
  C284     1.0000 0.50000  0.22340  0.76020  Biso   1.000  C
  C285     1.0000 0.73980  0.77660  0.00000  Biso   1.000  C
  C286     1.0000 0.26020  0.22340  0.00000  Biso   1.000  C
  C287     1.0000 0.77660  0.26020  0.00000  Biso   1.000  C
  C288     1.0000 0.22340  0.73980  0.00000  Biso   1.000  C
  H1       1.0000 0.99997  0.24174  0.13519  Biso   1.000  H
  H2       1.0000 0.00013  0.10206  0.24235  Biso   1.000  H
  H3       1.0000 0.00002  0.16238  0.32626  Biso   1.000  H
  H4       1.0000 0.75825  0.00000  0.13519  Biso   1.000  H
  H5       1.0000 0.00004  0.75826  0.86481  Biso   1.000  H
  H6       1.0000 0.24173  0.99999  0.86481  Biso   1.000  H
  H7       1.0000 0.13519  0.99997  0.24174  Biso   1.000  H
  H8       1.0000 0.99999  0.86481  0.24173  Biso   1.000  H
  H9       1.0000 0.99999  0.13519  0.75825  Biso   1.000  H
  H10      1.0000 0.86481  0.00004  0.75826  Biso   1.000  H
  H11      1.0000 0.24173  0.13519  0.99997  Biso   1.000  H
  H12      1.0000 0.75826  0.86481  0.00004  Biso   1.000  H
  H13      1.0000 0.13520  0.75825  0.00000  Biso   1.000  H
  H14      1.0000 0.86481  0.24173  0.99999  Biso   1.000  H
  H15      1.0000 0.00001  0.74175  0.63520  Biso   1.000  H
  H16      1.0000 0.00000  0.25827  0.36481  Biso   1.000  H
  H17      1.0000 0.24174  0.49997  0.36481  Biso   1.000  H
  H18      1.0000 0.75825  0.50000  0.36481  Biso   1.000  H
  H19      1.0000 0.13519  0.50002  0.74174  Biso   1.000  H
  H20      1.0000 0.86481  0.49996  0.74175  Biso   1.000  H
  H21      1.0000 0.00001  0.36481  0.74173  Biso   1.000  H
  H22      1.0000 0.99998  0.63520  0.25826  Biso   1.000  H
  H23      1.0000 0.24175  0.36481  0.49999  Biso   1.000  H
  H24      1.0000 0.13519  0.74174  0.50003  Biso   1.000  H
  H25      1.0000 0.75826  0.63519  0.49996  Biso   1.000  H
  H26      1.0000 0.86481  0.25827  0.50000  Biso   1.000  H
  H27      1.0000 0.25826  0.00002  0.63519  Biso   1.000  H
  H28      1.0000 0.50000  0.75827  0.36481  Biso   1.000  H
  H29      1.0000 0.74174  0.99997  0.36481  Biso   1.000  H
  H30      1.0000 0.50004  0.24173  0.36481  Biso   1.000  H
  H31      1.0000 0.63519  0.00002  0.74173  Biso   1.000  H
  H32      1.0000 0.50001  0.13519  0.74175  Biso   1.000  H
  H33      1.0000 0.50002  0.86481  0.74174  Biso   1.000  H
  H34      1.0000 0.36480  0.99999  0.25825  Biso   1.000  H
  H35      1.0000 0.74175  0.86481  0.49999  Biso   1.000  H
  H36      1.0000 0.63519  0.24173  0.50000  Biso   1.000  H
  H37      1.0000 0.25826  0.13519  0.50002  Biso   1.000  H
  H38      1.0000 0.36481  0.75826  0.49997  Biso   1.000  H
  H39      1.0000 0.50000  0.74173  0.13519  Biso   1.000  H
  H40      1.0000 0.25826  0.49997  0.13519  Biso   1.000  H
  H41      1.0000 0.50000  0.25827  0.13519  Biso   1.000  H
  H42      1.0000 0.74174  0.50003  0.13519  Biso   1.000  H
  H43      1.0000 0.63519  0.49997  0.75827  Biso   1.000  H
  H44      1.0000 0.50000  0.63519  0.75826  Biso   1.000  H
  H45      1.0000 0.36481  0.50003  0.75827  Biso   1.000  H
  H46      1.0000 0.49999  0.36481  0.75826  Biso   1.000  H
  H47      1.0000 0.74175  0.63519  0.00001  Biso   1.000  H
  H48      1.0000 0.25825  0.36481  0.00001  Biso   1.000  H
  H49      1.0000 0.63519  0.25827  0.00000  Biso   1.000  H
  H50      1.0000 0.36481  0.74173  0.00000  Biso   1.000  H
  H51      1.0000 0.89794  0.99987  0.24235  Biso   1.000  H
  H52      1.0000 0.00005  0.89794  0.75766  Biso   1.000  H
  H53      1.0000 0.10206  0.99994  0.75767  Biso   1.000  H
  H54      1.0000 0.24235  0.00013  0.10206  Biso   1.000  H
  H55      1.0000 0.99994  0.75767  0.10206  Biso   1.000  H
  H56      1.0000 0.99987  0.24235  0.89794  Biso   1.000  H
  H57      1.0000 0.75766  0.00006  0.89794  Biso   1.000  H
  H58      1.0000 0.10206  0.24235  0.00014  Biso   1.000  H
  H59      1.0000 0.89794  0.75766  0.00006  Biso   1.000  H
  H60      1.0000 0.24235  0.89794  0.99987  Biso   1.000  H
  H61      1.0000 0.75767  0.10206  0.99994  Biso   1.000  H
  H62      1.0000 0.00008  0.60206  0.74233  Biso   1.000  H
  H63      1.0000 0.00010  0.39794  0.25765  Biso   1.000  H
  H64      1.0000 0.10206  0.49996  0.25767  Biso   1.000  H
  H65      1.0000 0.89794  0.50012  0.25766  Biso   1.000  H
  H66      1.0000 0.24234  0.50007  0.60206  Biso   1.000  H
  H67      1.0000 0.75766  0.49994  0.60206  Biso   1.000  H
  H68      1.0000 0.99987  0.25765  0.60206  Biso   1.000  H
  H69      1.0000 0.99994  0.74234  0.39794  Biso   1.000  H
  H70      1.0000 0.10206  0.25765  0.49987  Biso   1.000  H
  H71      1.0000 0.24234  0.60206  0.50005  Biso   1.000  H
  H72      1.0000 0.89794  0.74234  0.49995  Biso   1.000  H
  H73      1.0000 0.75767  0.39794  0.50006  Biso   1.000  H
  H74      1.0000 0.39794  0.99991  0.74233  Biso   1.000  H
  H75      1.0000 0.50005  0.89794  0.25768  Biso   1.000  H
  H76      1.0000 0.60206  0.99990  0.25764  Biso   1.000  H
  H77      1.0000 0.49987  0.10206  0.25767  Biso   1.000  H
  H78      1.0000 0.74234  0.00006  0.60206  Biso   1.000  H
  H79      1.0000 0.50013  0.24235  0.60206  Biso   1.000  H
  H80      1.0000 0.49986  0.75765  0.60206  Biso   1.000  H
  H81      1.0000 0.25765  0.00013  0.39794  Biso   1.000  H
  H82      1.0000 0.60206  0.75765  0.49987  Biso   1.000  H
  H83      1.0000 0.74234  0.10206  0.50006  Biso   1.000  H
  H84      1.0000 0.39794  0.24235  0.49986  Biso   1.000  H
  H85      1.0000 0.25765  0.89794  0.50014  Biso   1.000  H
  H86      1.0000 0.50009  0.60206  0.24234  Biso   1.000  H
  H87      1.0000 0.39794  0.49992  0.24234  Biso   1.000  H
  H88      1.0000 0.49991  0.39794  0.24234  Biso   1.000  H
  H89      1.0000 0.60206  0.50009  0.24234  Biso   1.000  H
  H90      1.0000 0.74234  0.49994  0.89794  Biso   1.000  H
  H91      1.0000 0.49987  0.74235  0.89794  Biso   1.000  H
  H92      1.0000 0.25766  0.50006  0.89794  Biso   1.000  H
  H93      1.0000 0.50013  0.25765  0.89794  Biso   1.000  H
  H94      1.0000 0.60206  0.74235  0.00013  Biso   1.000  H
  H95      1.0000 0.39794  0.25765  0.00013  Biso   1.000  H
  H96      1.0000 0.74234  0.39794  0.99994  Biso   1.000  H
  H97      1.0000 0.25766  0.60206  0.99994  Biso   1.000  H
  H98      1.0000 0.83762  0.99998  0.32626  Biso   1.000  H
  H99      1.0000 0.00005  0.83762  0.67374  Biso   1.000  H
  H100     1.0000 0.16238  0.99995  0.67374  Biso   1.000  H
  H101     1.0000 0.32626  0.00001  0.16238  Biso   1.000  H
  H102     1.0000 0.99997  0.67374  0.16238  Biso   1.000  H
  H103     1.0000 0.99997  0.32626  0.83762  Biso   1.000  H
  H104     1.0000 0.67374  0.00006  0.83762  Biso   1.000  H
  H105     1.0000 0.16238  0.32626  0.00001  Biso   1.000  H
  H106     1.0000 0.83762  0.67374  0.00005  Biso   1.000  H
  H107     1.0000 0.32626  0.83762  0.99996  Biso   1.000  H
  H108     1.0000 0.67374  0.16238  0.99996  Biso   1.000  H
  H109     1.0000 0.00003  0.66238  0.82626  Biso   1.000  H
  H110     1.0000 0.00004  0.33762  0.17374  Biso   1.000  H
  H111     1.0000 0.16238  0.49996  0.17374  Biso   1.000  H
  H112     1.0000 0.83762  0.50001  0.17374  Biso   1.000  H
  H113     1.0000 0.32626  0.50004  0.66238  Biso   1.000  H
  H114     1.0000 0.67374  0.49994  0.66238  Biso   1.000  H
  H115     1.0000 0.99998  0.17374  0.66238  Biso   1.000  H
  H116     1.0000 0.99996  0.82626  0.33762  Biso   1.000  H
  H117     1.0000 0.16238  0.17374  0.49996  Biso   1.000  H
  H118     1.0000 0.32626  0.66238  0.50006  Biso   1.000  H
  H119     1.0000 0.83762  0.82626  0.49995  Biso   1.000  H
  H120     1.0000 0.67374  0.33762  0.50004  Biso   1.000  H
  H121     1.0000 0.33762  0.99997  0.82626  Biso   1.000  H
  H122     1.0000 0.50004  0.83761  0.17374  Biso   1.000  H
  H123     1.0000 0.66238  0.99996  0.17374  Biso   1.000  H
  H124     1.0000 0.49999  0.16239  0.17374  Biso   1.000  H
  H125     1.0000 0.82626  0.00005  0.66238  Biso   1.000  H
  H126     1.0000 0.50003  0.32626  0.66238  Biso   1.000  H
  H127     1.0000 0.49998  0.67374  0.66238  Biso   1.000  H
  H128     1.0000 0.17374  0.00002  0.33762  Biso   1.000  H
  H129     1.0000 0.66238  0.67374  0.49997  Biso   1.000  H
  H130     1.0000 0.82626  0.16238  0.50005  Biso   1.000  H
  H131     1.0000 0.33762  0.32626  0.49999  Biso   1.000  H
  H132     1.0000 0.17374  0.83762  0.50000  Biso   1.000  H
  H133     1.0000 0.50003  0.66239  0.32626  Biso   1.000  H
  H134     1.0000 0.33762  0.49997  0.32626  Biso   1.000  H
  H135     1.0000 0.49996  0.33761  0.32626  Biso   1.000  H
  H136     1.0000 0.66238  0.50003  0.32626  Biso   1.000  H
  H137     1.0000 0.82626  0.49995  0.83762  Biso   1.000  H
  H138     1.0000 0.49996  0.82626  0.83762  Biso   1.000  H
  H139     1.0000 0.17374  0.50007  0.83762  Biso   1.000  H
  H140     1.0000 0.50002  0.17374  0.83763  Biso   1.000  H
  H141     1.0000 0.66238  0.82626  0.00002  Biso   1.000  H
  H142     1.0000 0.33762  0.17374  0.00004  Biso   1.000  H
  H143     1.0000 0.82626  0.33762  0.99996  Biso   1.000  H
  H144     1.0000 0.17374  0.66238  0.99998  Biso   1.000  H
  H145     1.0000 0.41810  0.41845  0.91710  Biso   1.000  H
  H146     1.0000 0.58189  0.58156  0.91710  Biso   1.000  H
  H147     1.0000 0.41817  0.58235  0.08098  Biso   1.000  H
  H148     1.0000 0.58184  0.41764  0.08096  Biso   1.000  H
  H149     1.0000 0.08177  0.58193  0.41836  Biso   1.000  H
  H150     1.0000 0.91816  0.41758  0.41876  Biso   1.000  H
  H151     1.0000 0.91807  0.58183  0.58216  Biso   1.000  H
  H152     1.0000 0.08200  0.41857  0.58265  Biso   1.000  H
  H153     1.0000 0.41766  0.08169  0.58230  Biso   1.000  H
  H154     1.0000 0.58199  0.08235  0.41879  Biso   1.000  H
  H155     1.0000 0.41847  0.91758  0.41826  Biso   1.000  H
  H156     1.0000 0.58189  0.91838  0.58263  Biso   1.000  H
  H157     1.0000 0.91800  0.08238  0.08149  Biso   1.000  H
  H158     1.0000 0.08239  0.08150  0.91799  Biso   1.000  H
  H159     1.0000 0.91814  0.91815  0.91814  Biso   1.000  H
  H160     1.0000 0.08150  0.91800  0.08237  Biso   1.000  H
