data_image0
_cell_length_a       21.9605
_cell_length_b       21.9605
_cell_length_c       21.9605
_cell_angle_alpha    60
_cell_angle_beta     60
_cell_angle_gamma    60

_symmetry_space_group_name_H-M    "P 1"
_symmetry_int_tables_number       1

loop_
  _symmetry_equiv_pos_as_xyz
  'x, y, z'

loop_
  _atom_site_label
  _atom_site_occupancy
  _atom_site_fract_x
  _atom_site_fract_y
  _atom_site_fract_z
  _atom_site_thermal_displace_type
  _atom_site_B_iso_or_equiv
  _atom_site_type_symbol
  Zn1      1.0000 0.18229  0.45313  0.18229  Biso   1.000  Zn
  Zn2      1.0000 0.45313  0.18229  0.18229  Biso   1.000  Zn
  Zn3      1.0000 0.18229  0.18229  0.18229  Biso   1.000  Zn
  Zn4      1.0000 0.18229  0.18229  0.45313  Biso   1.000  Zn
  Zn5      1.0000 0.54687  0.81771  0.81771  Biso   1.000  Zn
  Zn6      1.0000 0.81771  0.54687  0.81771  Biso   1.000  Zn
  Zn7      1.0000 0.81771  0.81771  0.81771  Biso   1.000  Zn
  Zn8      1.0000 0.81771  0.81771  0.54687  Biso   1.000  Zn
  Zn9      1.0000 0.25000  0.25000  0.25000  Biso   1.000  Zn
  Zn10     1.0000 0.75000  0.75000  0.75000  Biso   1.000  Zn
  H1       1.0000 0.07930  0.52818  0.31322  Biso   1.000  H
  H2       1.0000 0.52818  0.07930  0.07930  Biso   1.000  H
  H3       1.0000 0.31322  0.07930  0.07930  Biso   1.000  H
  H4       1.0000 0.07930  0.31322  0.52818  Biso   1.000  H
  H5       1.0000 0.07930  0.31322  0.07930  Biso   1.000  H
  H6       1.0000 0.52818  0.07930  0.31322  Biso   1.000  H
  H7       1.0000 0.31322  0.07930  0.52818  Biso   1.000  H
  H8       1.0000 0.07930  0.52818  0.07930  Biso   1.000  H
  H9       1.0000 0.07930  0.07930  0.52818  Biso   1.000  H
  H10      1.0000 0.52818  0.31322  0.07930  Biso   1.000  H
  H11      1.0000 0.31322  0.52818  0.07930  Biso   1.000  H
  H12      1.0000 0.07930  0.07930  0.31322  Biso   1.000  H
  H13      1.0000 0.47182  0.92070  0.68678  Biso   1.000  H
  H14      1.0000 0.92070  0.47182  0.92070  Biso   1.000  H
  H15      1.0000 0.92070  0.68678  0.92070  Biso   1.000  H
  H16      1.0000 0.68678  0.92070  0.47182  Biso   1.000  H
  H17      1.0000 0.68678  0.92070  0.92070  Biso   1.000  H
  H18      1.0000 0.92070  0.47182  0.68678  Biso   1.000  H
  H19      1.0000 0.92070  0.68678  0.47182  Biso   1.000  H
  H20      1.0000 0.47182  0.92070  0.92070  Biso   1.000  H
  H21      1.0000 0.92070  0.92070  0.47182  Biso   1.000  H
  H22      1.0000 0.68678  0.47182  0.92070  Biso   1.000  H
  H23      1.0000 0.47182  0.68678  0.92070  Biso   1.000  H
  H24      1.0000 0.92070  0.92070  0.68678  Biso   1.000  H
  C1       1.0000 0.11735  0.41463  0.35067  Biso   1.000  C
  C2       1.0000 0.07883  0.48631  0.35603  Biso   1.000  C
  C3       1.0000 0.03904  0.49420  0.42772  Biso   1.000  C
  C4       1.0000 0.41463  0.11735  0.11735  Biso   1.000  C
  C5       1.0000 0.48631  0.07883  0.07883  Biso   1.000  C
  C6       1.0000 0.49420  0.03904  0.03904  Biso   1.000  C
  C7       1.0000 0.35067  0.11735  0.11735  Biso   1.000  C
  C8       1.0000 0.35603  0.07883  0.07883  Biso   1.000  C
  C9       1.0000 0.42772  0.03904  0.03904  Biso   1.000  C
  C10      1.0000 0.11735  0.35067  0.41463  Biso   1.000  C
  C11      1.0000 0.07883  0.35603  0.48631  Biso   1.000  C
  C12      1.0000 0.03904  0.42772  0.49420  Biso   1.000  C
  C13      1.0000 0.11735  0.35067  0.11735  Biso   1.000  C
  C14      1.0000 0.07883  0.35603  0.07883  Biso   1.000  C
  C15      1.0000 0.03904  0.42772  0.03904  Biso   1.000  C
  C16      1.0000 0.41463  0.11735  0.35067  Biso   1.000  C
  C17      1.0000 0.48631  0.07883  0.35603  Biso   1.000  C
  C18      1.0000 0.49420  0.03904  0.42772  Biso   1.000  C
  C19      1.0000 0.35067  0.11735  0.41463  Biso   1.000  C
  C20      1.0000 0.35603  0.07883  0.48631  Biso   1.000  C
  C21      1.0000 0.42772  0.03904  0.49420  Biso   1.000  C
  C22      1.0000 0.11735  0.41463  0.11735  Biso   1.000  C
  C23      1.0000 0.07883  0.48631  0.07883  Biso   1.000  C
  C24      1.0000 0.03904  0.49420  0.03904  Biso   1.000  C
  C25      1.0000 0.11735  0.11735  0.41463  Biso   1.000  C
  C26      1.0000 0.07883  0.07883  0.48631  Biso   1.000  C
  C27      1.0000 0.03904  0.03904  0.49420  Biso   1.000  C
  C28      1.0000 0.41463  0.35067  0.11735  Biso   1.000  C
  C29      1.0000 0.48631  0.35603  0.07883  Biso   1.000  C
  C30      1.0000 0.49420  0.42772  0.03904  Biso   1.000  C
  C31      1.0000 0.35067  0.41463  0.11735  Biso   1.000  C
  C32      1.0000 0.35603  0.48631  0.07883  Biso   1.000  C
  C33      1.0000 0.42772  0.49420  0.03904  Biso   1.000  C
  C34      1.0000 0.11735  0.11735  0.35067  Biso   1.000  C
  C35      1.0000 0.07883  0.07883  0.35603  Biso   1.000  C
  C36      1.0000 0.03904  0.03904  0.42772  Biso   1.000  C
  C37      1.0000 0.58537  0.88265  0.64933  Biso   1.000  C
  C38      1.0000 0.51369  0.92117  0.64397  Biso   1.000  C
  C39      1.0000 0.50580  0.96096  0.57228  Biso   1.000  C
  C40      1.0000 0.88265  0.58537  0.88265  Biso   1.000  C
  C41      1.0000 0.92117  0.51369  0.92117  Biso   1.000  C
  C42      1.0000 0.96096  0.50580  0.96096  Biso   1.000  C
  C43      1.0000 0.88265  0.64933  0.88265  Biso   1.000  C
  C44      1.0000 0.92117  0.64397  0.92117  Biso   1.000  C
  C45      1.0000 0.96096  0.57228  0.96096  Biso   1.000  C
  C46      1.0000 0.64933  0.88265  0.58537  Biso   1.000  C
  C47      1.0000 0.64397  0.92117  0.51369  Biso   1.000  C
  C48      1.0000 0.57228  0.96096  0.50580  Biso   1.000  C
  C49      1.0000 0.64933  0.88265  0.88265  Biso   1.000  C
  C50      1.0000 0.64397  0.92117  0.92117  Biso   1.000  C
  C51      1.0000 0.57228  0.96096  0.96096  Biso   1.000  C
  C52      1.0000 0.88265  0.58537  0.64933  Biso   1.000  C
  C53      1.0000 0.92117  0.51369  0.64397  Biso   1.000  C
  C54      1.0000 0.96096  0.50580  0.57228  Biso   1.000  C
  C55      1.0000 0.88265  0.64933  0.58537  Biso   1.000  C
  C56      1.0000 0.92117  0.64397  0.51369  Biso   1.000  C
  C57      1.0000 0.96096  0.57228  0.50580  Biso   1.000  C
  C58      1.0000 0.58537  0.88265  0.88265  Biso   1.000  C
  C59      1.0000 0.51369  0.92117  0.92117  Biso   1.000  C
  C60      1.0000 0.50580  0.96096  0.96096  Biso   1.000  C
  C61      1.0000 0.88265  0.88265  0.58537  Biso   1.000  C
  C62      1.0000 0.92117  0.92117  0.51369  Biso   1.000  C
  C63      1.0000 0.96096  0.96096  0.50580  Biso   1.000  C
  C64      1.0000 0.64933  0.58537  0.88265  Biso   1.000  C
  C65      1.0000 0.64397  0.51369  0.92117  Biso   1.000  C
  C66      1.0000 0.57228  0.50580  0.96096  Biso   1.000  C
  C67      1.0000 0.58537  0.64933  0.88265  Biso   1.000  C
  C68      1.0000 0.51369  0.64397  0.92117  Biso   1.000  C
  C69      1.0000 0.50580  0.57228  0.96096  Biso   1.000  C
  C70      1.0000 0.88265  0.88265  0.64933  Biso   1.000  C
  C71      1.0000 0.92117  0.92117  0.64397  Biso   1.000  C
  C72      1.0000 0.96096  0.96096  0.57228  Biso   1.000  C
  N1       1.0000 0.15930  0.39054  0.29086  Biso   1.000  N
  N2       1.0000 0.39054  0.15930  0.15930  Biso   1.000  N
  N3       1.0000 0.29086  0.15930  0.15930  Biso   1.000  N
  N4       1.0000 0.15930  0.29086  0.39054  Biso   1.000  N
  N5       1.0000 0.15930  0.29086  0.15930  Biso   1.000  N
  N6       1.0000 0.39054  0.15930  0.29086  Biso   1.000  N
  N7       1.0000 0.29086  0.15930  0.39054  Biso   1.000  N
  N8       1.0000 0.15930  0.39054  0.15930  Biso   1.000  N
  N9       1.0000 0.15930  0.15930  0.39054  Biso   1.000  N
  N10      1.0000 0.39054  0.29086  0.15930  Biso   1.000  N
  N11      1.0000 0.29086  0.39054  0.15930  Biso   1.000  N
  N12      1.0000 0.15930  0.15930  0.29086  Biso   1.000  N
  N13      1.0000 0.60946  0.84070  0.70914  Biso   1.000  N
  N14      1.0000 0.84070  0.60946  0.84070  Biso   1.000  N
  N15      1.0000 0.84070  0.70914  0.84070  Biso   1.000  N
  N16      1.0000 0.70914  0.84070  0.60946  Biso   1.000  N
  N17      1.0000 0.70914  0.84070  0.84070  Biso   1.000  N
  N18      1.0000 0.84070  0.60946  0.70914  Biso   1.000  N
  N19      1.0000 0.84070  0.70914  0.60946  Biso   1.000  N
  N20      1.0000 0.60946  0.84070  0.84070  Biso   1.000  N
  N21      1.0000 0.84070  0.84070  0.60946  Biso   1.000  N
  N22      1.0000 0.70914  0.60946  0.84070  Biso   1.000  N
  N23      1.0000 0.60946  0.70914  0.84070  Biso   1.000  N
  N24      1.0000 0.84070  0.84070  0.70914  Biso   1.000  N
  N25      1.0000 0.18427  0.31573  0.31573  Biso   1.000  N
  N26      1.0000 0.31573  0.18427  0.18427  Biso   1.000  N
  N27      1.0000 0.18427  0.31573  0.18427  Biso   1.000  N
  N28      1.0000 0.31573  0.18427  0.31573  Biso   1.000  N
  N29      1.0000 0.18427  0.18427  0.31573  Biso   1.000  N
  N30      1.0000 0.31573  0.31573  0.18427  Biso   1.000  N
  N31      1.0000 0.68427  0.81573  0.68427  Biso   1.000  N
  N32      1.0000 0.81573  0.68427  0.81573  Biso   1.000  N
  N33      1.0000 0.68427  0.81573  0.81573  Biso   1.000  N
  N34      1.0000 0.81573  0.68427  0.68427  Biso   1.000  N
  N35      1.0000 0.81573  0.81573  0.68427  Biso   1.000  N
  N36      1.0000 0.68427  0.68427  0.81573  Biso   1.000  N
  Cl1      1.0000 0.14380  0.56858  0.14381  Biso   1.000  Cl
  Cl2      1.0000 0.56857  0.14381  0.14381  Biso   1.000  Cl
  Cl3      1.0000 0.14380  0.14381  0.14381  Biso   1.000  Cl
  Cl4      1.0000 0.14380  0.14381  0.56858  Biso   1.000  Cl
  Cl5      1.0000 0.43143  0.85619  0.85619  Biso   1.000  Cl
  Cl6      1.0000 0.85620  0.43142  0.85619  Biso   1.000  Cl
  Cl7      1.0000 0.85620  0.85619  0.85619  Biso   1.000  Cl
  Cl8      1.0000 0.85620  0.85619  0.43142  Biso   1.000  Cl
  O1       1.0000 0.00000  0.56692  0.43308  Biso   1.000  O
  O2       1.0000 0.56692  0.00000  0.00000  Biso   1.000  O
  O3       1.0000 0.43308  0.00000  0.00000  Biso   1.000  O
  O4       1.0000 0.00000  0.43308  0.56692  Biso   1.000  O
  O5       1.0000 0.00000  0.43308  0.00000  Biso   1.000  O
  O6       1.0000 0.56692  0.00000  0.43308  Biso   1.000  O
  O7       1.0000 0.43308  0.00000  0.56692  Biso   1.000  O
  O8       1.0000 0.00000  0.56692  0.00000  Biso   1.000  O
  O9       1.0000 0.00000  0.00000  0.56692  Biso   1.000  O
  O10      1.0000 0.56692  0.43308  0.00000  Biso   1.000  O
  O11      1.0000 0.43308  0.56692  0.00000  Biso   1.000  O
  O12      1.0000 0.00000  0.00000  0.43308  Biso   1.000  O
