data_image0
_cell_length_a       20.6362
_cell_length_b       20.6362
_cell_length_c       20.6362
_cell_angle_alpha    60
_cell_angle_beta     60
_cell_angle_gamma    60

_symmetry_space_group_name_H-M    "P 1"
_symmetry_int_tables_number       1

loop_
  _symmetry_equiv_pos_as_xyz
  'x, y, z'

loop_
  _atom_site_label
  _atom_site_occupancy
  _atom_site_fract_x
  _atom_site_fract_y
  _atom_site_fract_z
  _atom_site_thermal_displace_type
  _atom_site_B_iso_or_equiv
  _atom_site_type_symbol
  Zn1      1.0000 0.21160  0.36518  0.21161  Biso   1.000  Zn
  Zn2      1.0000 0.36517  0.21161  0.21161  Biso   1.000  Zn
  Zn3      1.0000 0.21160  0.21161  0.21161  Biso   1.000  Zn
  Zn4      1.0000 0.21160  0.21161  0.36518  Biso   1.000  Zn
  Zn5      1.0000 0.63483  0.78839  0.78839  Biso   1.000  Zn
  Zn6      1.0000 0.78840  0.63482  0.78839  Biso   1.000  Zn
  Zn7      1.0000 0.78840  0.78839  0.78839  Biso   1.000  Zn
  Zn8      1.0000 0.78840  0.78839  0.63482  Biso   1.000  Zn
  H1       1.0000 0.05700  0.53740  0.05700  Biso   1.000  H
  H2       1.0000 0.53740  0.05700  0.34860  Biso   1.000  H
  H3       1.0000 0.05700  0.05700  0.53740  Biso   1.000  H
  H4       1.0000 0.34860  0.53740  0.05700  Biso   1.000  H
  H5       1.0000 0.34860  0.05700  0.05700  Biso   1.000  H
  H6       1.0000 0.05700  0.34860  0.53740  Biso   1.000  H
  H7       1.0000 0.65140  0.94300  0.94300  Biso   1.000  H
  H8       1.0000 0.94300  0.65140  0.46260  Biso   1.000  H
  H9       1.0000 0.94300  0.94300  0.46260  Biso   1.000  H
  H10      1.0000 0.65140  0.46260  0.94300  Biso   1.000  H
  H11      1.0000 0.46260  0.94300  0.65140  Biso   1.000  H
  H12      1.0000 0.94300  0.46260  0.94300  Biso   1.000  H
  S1       1.0000 0.04740  0.40120  0.04740  Biso   1.000  S
  S2       1.0000 0.40120  0.04740  0.50400  Biso   1.000  S
  C1       1.0000 0.04740  0.50400  0.04740  Biso   1.000  C
  C2       1.0000 0.50400  0.04740  0.40120  Biso   1.000  C
  C3       1.0000 0.04740  0.04740  0.50400  Biso   1.000  C
  C4       1.0000 0.40120  0.50400  0.04740  Biso   1.000  C
  S3       1.0000 0.04740  0.04740  0.40120  Biso   1.000  S
  S4       1.0000 0.50400  0.40120  0.04740  Biso   1.000  S
  S5       1.0000 0.04740  0.50400  0.40120  Biso   1.000  S
  C5       1.0000 0.40120  0.04740  0.04740  Biso   1.000  C
  C6       1.0000 0.04740  0.40120  0.50400  Biso   1.000  C
  S6       1.0000 0.50400  0.04740  0.04740  Biso   1.000  S
  C7       1.0000 0.59880  0.95260  0.95260  Biso   1.000  C
  C8       1.0000 0.95260  0.59880  0.49600  Biso   1.000  C
  S7       1.0000 0.49600  0.95260  0.95260  Biso   1.000  S
  S8       1.0000 0.95260  0.49600  0.59880  Biso   1.000  S
  C9       1.0000 0.95260  0.95260  0.49600  Biso   1.000  C
  S9       1.0000 0.49600  0.59880  0.95260  Biso   1.000  S
  S10      1.0000 0.95260  0.95260  0.59880  Biso   1.000  S
  C10      1.0000 0.59880  0.49600  0.95260  Biso   1.000  C
  C11      1.0000 0.49600  0.95260  0.59880  Biso   1.000  C
  S11      1.0000 0.95260  0.59880  0.95260  Biso   1.000  S
  S12      1.0000 0.59880  0.95260  0.49600  Biso   1.000  S
  C12      1.0000 0.95260  0.49600  0.95260  Biso   1.000  C
  C13      1.0000 0.12824  0.37176  0.12824  Biso   1.000  C
  C14      1.0000 0.07711  0.42289  0.07711  Biso   1.000  C
  C15      1.0000 0.37176  0.12824  0.37176  Biso   1.000  C
  C16      1.0000 0.42289  0.07711  0.42289  Biso   1.000  C
  C17      1.0000 0.12824  0.12824  0.37176  Biso   1.000  C
  C18      1.0000 0.07711  0.07711  0.42289  Biso   1.000  C
  C19      1.0000 0.37176  0.37176  0.12824  Biso   1.000  C
  C20      1.0000 0.42289  0.42289  0.07711  Biso   1.000  C
  C21      1.0000 0.12824  0.37176  0.37176  Biso   1.000  C
  C22      1.0000 0.07711  0.42289  0.42289  Biso   1.000  C
  C23      1.0000 0.37176  0.12824  0.12824  Biso   1.000  C
  C24      1.0000 0.42289  0.07711  0.07711  Biso   1.000  C
  C25      1.0000 0.62824  0.87176  0.87176  Biso   1.000  C
  C26      1.0000 0.57711  0.92289  0.92289  Biso   1.000  C
  C27      1.0000 0.87176  0.62824  0.62824  Biso   1.000  C
  C28      1.0000 0.92289  0.57711  0.57711  Biso   1.000  C
  C29      1.0000 0.87176  0.87176  0.62824  Biso   1.000  C
  C30      1.0000 0.92289  0.92289  0.57711  Biso   1.000  C
  C31      1.0000 0.62824  0.62824  0.87176  Biso   1.000  C
  C32      1.0000 0.57711  0.57711  0.92289  Biso   1.000  C
  C33      1.0000 0.62824  0.87176  0.62824  Biso   1.000  C
  C34      1.0000 0.57711  0.92289  0.57711  Biso   1.000  C
  C35      1.0000 0.87176  0.62824  0.87176  Biso   1.000  C
  C36      1.0000 0.92289  0.57711  0.92289  Biso   1.000  C
  C37      1.0000 0.00000  0.46688  0.00000  Biso   1.000  C
  C38      1.0000 0.46688  0.00000  0.53312  Biso   1.000  C
  C39      1.0000 0.00000  0.53312  0.00000  Biso   1.000  C
  C40      1.0000 0.53312  0.00000  0.46688  Biso   1.000  C
  C41      1.0000 0.46688  0.53312  0.00000  Biso   1.000  C
  C42      1.0000 0.00000  0.00000  0.46688  Biso   1.000  C
  C43      1.0000 0.53312  0.46688  0.00000  Biso   1.000  C
  C44      1.0000 0.00191  0.53077  0.46499  Biso   1.000  C
  C45      1.0000 0.46688  0.00000  0.00000  Biso   1.000  C
  C46      1.0000 0.53312  0.00000  0.00000  Biso   1.000  C
  O1       1.0000 0.25000  0.25000  0.25000  Biso   1.000  O
  O2       1.0000 0.75000  0.75000  0.75000  Biso   1.000  O
  O3       1.0000 0.14684  0.40916  0.14684  Biso   1.000  O
  O4       1.0000 0.40916  0.14684  0.29716  Biso   1.000  O
  O5       1.0000 0.14684  0.29716  0.14684  Biso   1.000  O
  O6       1.0000 0.29716  0.14684  0.40916  Biso   1.000  O
  O7       1.0000 0.14684  0.14684  0.29716  Biso   1.000  O
  O8       1.0000 0.40916  0.29716  0.14684  Biso   1.000  O
  O9       1.0000 0.14684  0.14684  0.40916  Biso   1.000  O
  O10      1.0000 0.29716  0.40916  0.14684  Biso   1.000  O
  O11      1.0000 0.14684  0.29716  0.40916  Biso   1.000  O
  O12      1.0000 0.40916  0.14684  0.14684  Biso   1.000  O
  O13      1.0000 0.14684  0.40916  0.29716  Biso   1.000  O
  O14      1.0000 0.29716  0.14684  0.14684  Biso   1.000  O
  O15      1.0000 0.59084  0.85316  0.85316  Biso   1.000  O
  O16      1.0000 0.85316  0.59084  0.70284  Biso   1.000  O
  O17      1.0000 0.70284  0.85316  0.85316  Biso   1.000  O
  O18      1.0000 0.85316  0.70284  0.59084  Biso   1.000  O
  O19      1.0000 0.85316  0.85316  0.70284  Biso   1.000  O
  O20      1.0000 0.70284  0.59084  0.85316  Biso   1.000  O
  O21      1.0000 0.85316  0.85316  0.59084  Biso   1.000  O
  O22      1.0000 0.59084  0.70284  0.85316  Biso   1.000  O
  O23      1.0000 0.70284  0.85316  0.59084  Biso   1.000  O
  O24      1.0000 0.85316  0.59084  0.85316  Biso   1.000  O
  O25      1.0000 0.59084  0.85316  0.70284  Biso   1.000  O
  O26      1.0000 0.85316  0.70284  0.85316  Biso   1.000  O
  C47      1.0000 0.00838  0.46793  0.52335  Biso   1.000  C
  C48      1.0000 0.00012  0.00114  0.53497  Biso   1.000  C
