data_image0
_cell_length_a       18.4951
_cell_length_b       18.4951
_cell_length_c       46.337
_cell_angle_alpha    90
_cell_angle_beta     90
_cell_angle_gamma    120

_symmetry_space_group_name_H-M    "P 1"
_symmetry_int_tables_number       1

loop_
  _symmetry_equiv_pos_as_xyz
  'x, y, z'

loop_
  _atom_site_label
  _atom_site_occupancy
  _atom_site_fract_x
  _atom_site_fract_y
  _atom_site_fract_z
  _atom_site_thermal_displace_type
  _atom_site_B_iso_or_equiv
  _atom_site_type_symbol
  Cu1      1.0000 0.71464  0.85732  0.35700  Biso   1.000  Cu
  Cu2      1.0000 0.14268  0.85732  0.35700  Biso   1.000  Cu
  Cu3      1.0000 0.14268  0.28536  0.35700  Biso   1.000  Cu
  Cu4      1.0000 0.85732  0.71464  0.64300  Biso   1.000  Cu
  Cu5      1.0000 0.85732  0.14268  0.64300  Biso   1.000  Cu
  Cu6      1.0000 0.28536  0.14268  0.64300  Biso   1.000  Cu
  Cu7      1.0000 0.38131  0.19065  0.69033  Biso   1.000  Cu
  Cu8      1.0000 0.80935  0.19065  0.69033  Biso   1.000  Cu
  Cu9      1.0000 0.80935  0.61869  0.69033  Biso   1.000  Cu
  Cu10     1.0000 0.52399  0.04797  0.97633  Biso   1.000  Cu
  Cu11     1.0000 0.52399  0.47601  0.97633  Biso   1.000  Cu
  Cu12     1.0000 0.95203  0.47601  0.97633  Biso   1.000  Cu
  Cu13     1.0000 0.04797  0.52399  0.02367  Biso   1.000  Cu
  Cu14     1.0000 0.47601  0.52399  0.02367  Biso   1.000  Cu
  Cu15     1.0000 0.47601  0.95203  0.02367  Biso   1.000  Cu
  Cu16     1.0000 0.19065  0.38131  0.30967  Biso   1.000  Cu
  Cu17     1.0000 0.19065  0.80935  0.30967  Biso   1.000  Cu
  Cu18     1.0000 0.61869  0.80935  0.30967  Biso   1.000  Cu
  O1       1.0000 0.63560  0.74290  0.36740  Biso   1.000  O
  O2       1.0000 0.25710  0.89270  0.36740  Biso   1.000  O
  O3       1.0000 0.10730  0.36440  0.36740  Biso   1.000  O
  O4       1.0000 0.74290  0.63560  0.63260  Biso   1.000  O
  O5       1.0000 0.89270  0.25710  0.63260  Biso   1.000  O
  O6       1.0000 0.36440  0.10730  0.63260  Biso   1.000  O
  O7       1.0000 0.36440  0.25710  0.63260  Biso   1.000  O
  O8       1.0000 0.74290  0.10730  0.63260  Biso   1.000  O
  O9       1.0000 0.89270  0.63560  0.63260  Biso   1.000  O
  O10      1.0000 0.25710  0.36440  0.36740  Biso   1.000  O
  O11      1.0000 0.10730  0.74290  0.36740  Biso   1.000  O
  O12      1.0000 0.63560  0.89270  0.36740  Biso   1.000  O
  O13      1.0000 0.30227  0.07623  0.70073  Biso   1.000  O
  O14      1.0000 0.92377  0.22603  0.70073  Biso   1.000  O
  O15      1.0000 0.77397  0.69773  0.70073  Biso   1.000  O
  O16      1.0000 0.40957  0.96893  0.96593  Biso   1.000  O
  O17      1.0000 0.55937  0.59043  0.96593  Biso   1.000  O
  O18      1.0000 0.03107  0.44063  0.96593  Biso   1.000  O
  O19      1.0000 0.03107  0.59043  0.96593  Biso   1.000  O
  O20      1.0000 0.40957  0.44063  0.96593  Biso   1.000  O
  O21      1.0000 0.55937  0.96893  0.96593  Biso   1.000  O
  O22      1.0000 0.92377  0.69773  0.70073  Biso   1.000  O
  O23      1.0000 0.77397  0.07623  0.70073  Biso   1.000  O
  O24      1.0000 0.30227  0.22603  0.70073  Biso   1.000  O
  O25      1.0000 0.96893  0.40957  0.03407  Biso   1.000  O
  O26      1.0000 0.59043  0.55937  0.03407  Biso   1.000  O
  O27      1.0000 0.44063  0.03107  0.03407  Biso   1.000  O
  O28      1.0000 0.07623  0.30227  0.29927  Biso   1.000  O
  O29      1.0000 0.22603  0.92377  0.29927  Biso   1.000  O
  O30      1.0000 0.69773  0.77397  0.29927  Biso   1.000  O
  O31      1.0000 0.69773  0.92377  0.29927  Biso   1.000  O
  O32      1.0000 0.07623  0.77397  0.29927  Biso   1.000  O
  O33      1.0000 0.22603  0.30227  0.29927  Biso   1.000  O
  O34      1.0000 0.59043  0.03107  0.03407  Biso   1.000  O
  O35      1.0000 0.44063  0.40957  0.03407  Biso   1.000  O
  O36      1.0000 0.96893  0.55937  0.03407  Biso   1.000  O
  O37      1.0000 0.55730  0.70490  0.32780  Biso   1.000  O
  O38      1.0000 0.29510  0.85240  0.32780  Biso   1.000  O
  O39      1.0000 0.14760  0.44270  0.32780  Biso   1.000  O
  O40      1.0000 0.70490  0.55730  0.67220  Biso   1.000  O
  O41      1.0000 0.85240  0.29510  0.67220  Biso   1.000  O
  O42      1.0000 0.44270  0.14760  0.67220  Biso   1.000  O
  O43      1.0000 0.44270  0.29510  0.67220  Biso   1.000  O
  O44      1.0000 0.70490  0.14760  0.67220  Biso   1.000  O
  O45      1.0000 0.85240  0.55730  0.67220  Biso   1.000  O
  O46      1.0000 0.29510  0.44270  0.32780  Biso   1.000  O
  O47      1.0000 0.14760  0.70490  0.32780  Biso   1.000  O
  O48      1.0000 0.55730  0.85240  0.32780  Biso   1.000  O
  O49      1.0000 0.22397  0.03823  0.66113  Biso   1.000  O
  O50      1.0000 0.96177  0.18573  0.66113  Biso   1.000  O
  O51      1.0000 0.81427  0.77603  0.66113  Biso   1.000  O
  O52      1.0000 0.37157  0.89063  0.00553  Biso   1.000  O
  O53      1.0000 0.51907  0.62843  0.00553  Biso   1.000  O
  O54      1.0000 0.10937  0.48093  0.00553  Biso   1.000  O
  O55      1.0000 0.10937  0.62843  0.00553  Biso   1.000  O
  O56      1.0000 0.37157  0.48093  0.00553  Biso   1.000  O
  O57      1.0000 0.51907  0.89063  0.00553  Biso   1.000  O
  O58      1.0000 0.96177  0.77603  0.66113  Biso   1.000  O
  O59      1.0000 0.81427  0.03823  0.66113  Biso   1.000  O
  O60      1.0000 0.22397  0.18573  0.66113  Biso   1.000  O
  O61      1.0000 0.89063  0.37157  0.99447  Biso   1.000  O
  O62      1.0000 0.62843  0.51907  0.99447  Biso   1.000  O
  O63      1.0000 0.48093  0.10937  0.99447  Biso   1.000  O
  O64      1.0000 0.03823  0.22397  0.33887  Biso   1.000  O
  O65      1.0000 0.18573  0.96177  0.33887  Biso   1.000  O
  O66      1.0000 0.77603  0.81427  0.33887  Biso   1.000  O
  O67      1.0000 0.77603  0.96177  0.33887  Biso   1.000  O
  O68      1.0000 0.03823  0.81427  0.33887  Biso   1.000  O
  O69      1.0000 0.18573  0.22397  0.33887  Biso   1.000  O
  O70      1.0000 0.62843  0.10937  0.99447  Biso   1.000  O
  O71      1.0000 0.48093  0.37157  0.99447  Biso   1.000  O
  O72      1.0000 0.89063  0.51907  0.99447  Biso   1.000  O
  C1       1.0000 0.57080  0.69070  0.35330  Biso   1.000  C
  C2       1.0000 0.30930  0.88010  0.35330  Biso   1.000  C
  C3       1.0000 0.11990  0.42920  0.35330  Biso   1.000  C
  C4       1.0000 0.69070  0.57080  0.64670  Biso   1.000  C
  C5       1.0000 0.88010  0.30930  0.64670  Biso   1.000  C
  C6       1.0000 0.42920  0.11990  0.64670  Biso   1.000  C
  C7       1.0000 0.42920  0.30930  0.64670  Biso   1.000  C
  C8       1.0000 0.69070  0.11990  0.64670  Biso   1.000  C
  C9       1.0000 0.88010  0.57080  0.64670  Biso   1.000  C
  C10      1.0000 0.30930  0.42920  0.35330  Biso   1.000  C
  C11      1.0000 0.11990  0.69070  0.35330  Biso   1.000  C
  C12      1.0000 0.57080  0.88010  0.35330  Biso   1.000  C
  C13      1.0000 0.23747  0.02403  0.68663  Biso   1.000  C
  C14      1.0000 0.97597  0.21343  0.68663  Biso   1.000  C
  C15      1.0000 0.78657  0.76253  0.68663  Biso   1.000  C
  C16      1.0000 0.35737  0.90413  0.98003  Biso   1.000  C
  C17      1.0000 0.54677  0.64263  0.98003  Biso   1.000  C
  C18      1.0000 0.09587  0.45323  0.98003  Biso   1.000  C
  C19      1.0000 0.09587  0.64263  0.98003  Biso   1.000  C
  C20      1.0000 0.35737  0.45323  0.98003  Biso   1.000  C
  C21      1.0000 0.54677  0.90413  0.98003  Biso   1.000  C
  C22      1.0000 0.97597  0.76253  0.68663  Biso   1.000  C
  C23      1.0000 0.78657  0.02403  0.68663  Biso   1.000  C
  C24      1.0000 0.23747  0.21343  0.68663  Biso   1.000  C
  C25      1.0000 0.90413  0.35737  0.01997  Biso   1.000  C
  C26      1.0000 0.64263  0.54677  0.01997  Biso   1.000  C
  C27      1.0000 0.45323  0.09587  0.01997  Biso   1.000  C
  C28      1.0000 0.02403  0.23747  0.31337  Biso   1.000  C
  C29      1.0000 0.21343  0.97597  0.31337  Biso   1.000  C
  C30      1.0000 0.76253  0.78657  0.31337  Biso   1.000  C
  C31      1.0000 0.76253  0.97597  0.31337  Biso   1.000  C
  C32      1.0000 0.02403  0.78657  0.31337  Biso   1.000  C
  C33      1.0000 0.21343  0.23747  0.31337  Biso   1.000  C
  C34      1.0000 0.64263  0.09587  0.01997  Biso   1.000  C
  C35      1.0000 0.45323  0.35737  0.01997  Biso   1.000  C
  C36      1.0000 0.90413  0.54677  0.01997  Biso   1.000  C
  C37      1.0000 0.44510  0.55490  0.35730  Biso   1.000  C
  C38      1.0000 0.44510  0.89020  0.35730  Biso   1.000  C
  C39      1.0000 0.10980  0.55490  0.35730  Biso   1.000  C
  C40      1.0000 0.55490  0.44510  0.64270  Biso   1.000  C
  C41      1.0000 0.89020  0.44510  0.64270  Biso   1.000  C
  C42      1.0000 0.55490  0.10980  0.64270  Biso   1.000  C
  C43      1.0000 0.11177  0.88823  0.69063  Biso   1.000  C
  C44      1.0000 0.11177  0.22353  0.69063  Biso   1.000  C
  C45      1.0000 0.77647  0.88823  0.69063  Biso   1.000  C
  C46      1.0000 0.22157  0.77843  0.97603  Biso   1.000  C
  C47      1.0000 0.55687  0.77843  0.97603  Biso   1.000  C
  C48      1.0000 0.22157  0.44313  0.97603  Biso   1.000  C
  C49      1.0000 0.77843  0.22157  0.02397  Biso   1.000  C
  C50      1.0000 0.77843  0.55687  0.02397  Biso   1.000  C
  C51      1.0000 0.44313  0.22157  0.02397  Biso   1.000  C
  C52      1.0000 0.88823  0.11177  0.30937  Biso   1.000  C
  C53      1.0000 0.22353  0.11177  0.30937  Biso   1.000  C
  C54      1.0000 0.88823  0.77647  0.30937  Biso   1.000  C
  H1       1.0000 0.44460  0.55540  0.33730  Biso   1.000  H
  H2       1.0000 0.44460  0.88920  0.33730  Biso   1.000  H
  H3       1.0000 0.11080  0.55540  0.33730  Biso   1.000  H
  H4       1.0000 0.55540  0.44460  0.66270  Biso   1.000  H
  H5       1.0000 0.88920  0.44460  0.66270  Biso   1.000  H
  H6       1.0000 0.55540  0.11080  0.66270  Biso   1.000  H
  H7       1.0000 0.11127  0.88873  0.67063  Biso   1.000  H
  H8       1.0000 0.11127  0.22253  0.67063  Biso   1.000  H
  H9       1.0000 0.77747  0.88873  0.67063  Biso   1.000  H
  H10      1.0000 0.22207  0.77793  0.99603  Biso   1.000  H
  H11      1.0000 0.55587  0.77793  0.99603  Biso   1.000  H
  H12      1.0000 0.22207  0.44413  0.99603  Biso   1.000  H
  H13      1.0000 0.77793  0.22207  0.00397  Biso   1.000  H
  H14      1.0000 0.77793  0.55587  0.00397  Biso   1.000  H
  H15      1.0000 0.44413  0.22207  0.00397  Biso   1.000  H
  H16      1.0000 0.88873  0.11127  0.32937  Biso   1.000  H
  H17      1.0000 0.22253  0.11127  0.32937  Biso   1.000  H
  H18      1.0000 0.88873  0.77747  0.32937  Biso   1.000  H
  C55      1.0000 0.51550  0.61680  0.37130  Biso   1.000  C
  C56      1.0000 0.38320  0.89870  0.37130  Biso   1.000  C
  C57      1.0000 0.10130  0.48450  0.37130  Biso   1.000  C
  C58      1.0000 0.61680  0.51550  0.62870  Biso   1.000  C
  C59      1.0000 0.89870  0.38320  0.62870  Biso   1.000  C
  C60      1.0000 0.48450  0.10130  0.62870  Biso   1.000  C
  C61      1.0000 0.48450  0.38320  0.62870  Biso   1.000  C
  C62      1.0000 0.61680  0.10130  0.62870  Biso   1.000  C
  C63      1.0000 0.89870  0.51550  0.62870  Biso   1.000  C
  C64      1.0000 0.38320  0.48450  0.37130  Biso   1.000  C
  C65      1.0000 0.10130  0.61680  0.37130  Biso   1.000  C
  C66      1.0000 0.51550  0.89870  0.37130  Biso   1.000  C
  C67      1.0000 0.18217  0.95013  0.70463  Biso   1.000  C
  C68      1.0000 0.04987  0.23203  0.70463  Biso   1.000  C
  C69      1.0000 0.76797  0.81783  0.70463  Biso   1.000  C
  C70      1.0000 0.28347  0.84883  0.96203  Biso   1.000  C
  C71      1.0000 0.56537  0.71653  0.96203  Biso   1.000  C
  C72      1.0000 0.15117  0.43463  0.96203  Biso   1.000  C
  C73      1.0000 0.15117  0.71653  0.96203  Biso   1.000  C
  C74      1.0000 0.28347  0.43463  0.96203  Biso   1.000  C
  C75      1.0000 0.56537  0.84883  0.96203  Biso   1.000  C
  C76      1.0000 0.04987  0.81783  0.70463  Biso   1.000  C
  C77      1.0000 0.76797  0.95013  0.70463  Biso   1.000  C
  C78      1.0000 0.18217  0.23203  0.70463  Biso   1.000  C
  C79      1.0000 0.84883  0.28347  0.03797  Biso   1.000  C
  C80      1.0000 0.71653  0.56537  0.03797  Biso   1.000  C
  C81      1.0000 0.43463  0.15117  0.03797  Biso   1.000  C
  C82      1.0000 0.95013  0.18217  0.29537  Biso   1.000  C
  C83      1.0000 0.23203  0.04987  0.29537  Biso   1.000  C
  C84      1.0000 0.81783  0.76797  0.29537  Biso   1.000  C
  C85      1.0000 0.81783  0.04987  0.29537  Biso   1.000  C
  C86      1.0000 0.95013  0.76797  0.29537  Biso   1.000  C
  C87      1.0000 0.23203  0.18217  0.29537  Biso   1.000  C
  C88      1.0000 0.71653  0.15117  0.03797  Biso   1.000  C
  C89      1.0000 0.43463  0.28347  0.03797  Biso   1.000  C
  C90      1.0000 0.84883  0.56537  0.03797  Biso   1.000  C
  C91      1.0000 0.52880  0.60540  0.40000  Biso   1.000  C
  C92      1.0000 0.39460  0.92340  0.40000  Biso   1.000  C
  C93      1.0000 0.07660  0.47120  0.40000  Biso   1.000  C
  C94      1.0000 0.60540  0.52880  0.60000  Biso   1.000  C
  C95      1.0000 0.92340  0.39460  0.60000  Biso   1.000  C
  C96      1.0000 0.47120  0.07660  0.60000  Biso   1.000  C
  C97      1.0000 0.47120  0.39460  0.60000  Biso   1.000  C
  C98      1.0000 0.60540  0.07660  0.60000  Biso   1.000  C
  C99      1.0000 0.92340  0.52880  0.60000  Biso   1.000  C
  C100     1.0000 0.39460  0.47120  0.40000  Biso   1.000  C
  C101     1.0000 0.07660  0.60540  0.40000  Biso   1.000  C
  C102     1.0000 0.52880  0.92340  0.40000  Biso   1.000  C
  C103     1.0000 0.19547  0.93873  0.73333  Biso   1.000  C
  C104     1.0000 0.06127  0.25673  0.73333  Biso   1.000  C
  C105     1.0000 0.74327  0.80453  0.73333  Biso   1.000  C
  C106     1.0000 0.27207  0.86213  0.93333  Biso   1.000  C
  C107     1.0000 0.59007  0.72793  0.93333  Biso   1.000  C
  C108     1.0000 0.13787  0.40993  0.93333  Biso   1.000  C
  C109     1.0000 0.13787  0.72793  0.93333  Biso   1.000  C
  C110     1.0000 0.27207  0.40993  0.93333  Biso   1.000  C
  C111     1.0000 0.59007  0.86213  0.93333  Biso   1.000  C
  C112     1.0000 0.06127  0.80453  0.73333  Biso   1.000  C
  C113     1.0000 0.74327  0.93873  0.73333  Biso   1.000  C
  C114     1.0000 0.19547  0.25673  0.73333  Biso   1.000  C
  C115     1.0000 0.86213  0.27207  0.06667  Biso   1.000  C
  C116     1.0000 0.72793  0.59007  0.06667  Biso   1.000  C
  C117     1.0000 0.40993  0.13787  0.06667  Biso   1.000  C
  C118     1.0000 0.93873  0.19547  0.26667  Biso   1.000  C
  C119     1.0000 0.25673  0.06127  0.26667  Biso   1.000  C
  C120     1.0000 0.80453  0.74327  0.26667  Biso   1.000  C
  C121     1.0000 0.80453  0.06127  0.26667  Biso   1.000  C
  C122     1.0000 0.93873  0.74327  0.26667  Biso   1.000  C
  C123     1.0000 0.25673  0.19547  0.26667  Biso   1.000  C
  C124     1.0000 0.72793  0.13787  0.06667  Biso   1.000  C
  C125     1.0000 0.40993  0.27207  0.06667  Biso   1.000  C
  C126     1.0000 0.86213  0.59007  0.06667  Biso   1.000  C
  H19      1.0000 0.57250  0.64760  0.41050  Biso   1.000  H
  H20      1.0000 0.35240  0.92490  0.41050  Biso   1.000  H
  H21      1.0000 0.07510  0.42750  0.41050  Biso   1.000  H
  H22      1.0000 0.64760  0.57250  0.58950  Biso   1.000  H
  H23      1.0000 0.92490  0.35240  0.58950  Biso   1.000  H
  H24      1.0000 0.42750  0.07510  0.58950  Biso   1.000  H
  H25      1.0000 0.42750  0.35240  0.58950  Biso   1.000  H
  H26      1.0000 0.64760  0.07510  0.58950  Biso   1.000  H
  H27      1.0000 0.92490  0.57250  0.58950  Biso   1.000  H
  H28      1.0000 0.35240  0.42750  0.41050  Biso   1.000  H
  H29      1.0000 0.07510  0.64760  0.41050  Biso   1.000  H
  H30      1.0000 0.57250  0.92490  0.41050  Biso   1.000  H
  H31      1.0000 0.23917  0.98093  0.74383  Biso   1.000  H
  H32      1.0000 0.01907  0.25823  0.74383  Biso   1.000  H
  H33      1.0000 0.74177  0.76083  0.74383  Biso   1.000  H
  H34      1.0000 0.31427  0.90583  0.92283  Biso   1.000  H
  H35      1.0000 0.59157  0.68573  0.92283  Biso   1.000  H
  H36      1.0000 0.09417  0.40843  0.92283  Biso   1.000  H
  H37      1.0000 0.09417  0.68573  0.92283  Biso   1.000  H
  H38      1.0000 0.31427  0.40843  0.92283  Biso   1.000  H
  H39      1.0000 0.59157  0.90583  0.92283  Biso   1.000  H
  H40      1.0000 0.01907  0.76083  0.74383  Biso   1.000  H
  H41      1.0000 0.74177  0.98093  0.74383  Biso   1.000  H
  H42      1.0000 0.23917  0.25823  0.74383  Biso   1.000  H
  H43      1.0000 0.90583  0.31427  0.07717  Biso   1.000  H
  H44      1.0000 0.68573  0.59157  0.07717  Biso   1.000  H
  H45      1.0000 0.40843  0.09417  0.07717  Biso   1.000  H
  H46      1.0000 0.98093  0.23917  0.25617  Biso   1.000  H
  H47      1.0000 0.25823  0.01907  0.25617  Biso   1.000  H
  H48      1.0000 0.76083  0.74177  0.25617  Biso   1.000  H
  H49      1.0000 0.76083  0.01907  0.25617  Biso   1.000  H
  H50      1.0000 0.98093  0.74177  0.25617  Biso   1.000  H
  H51      1.0000 0.25823  0.23917  0.25617  Biso   1.000  H
  H52      1.0000 0.68573  0.09417  0.07717  Biso   1.000  H
  H53      1.0000 0.40843  0.31427  0.07717  Biso   1.000  H
  H54      1.0000 0.90583  0.59157  0.07717  Biso   1.000  H
  C127     1.0000 0.48210  0.51790  0.44400  Biso   1.000  C
  C128     1.0000 0.48210  0.96420  0.44400  Biso   1.000  C
  C129     1.0000 0.51790  0.48210  0.55600  Biso   1.000  C
  C130     1.0000 0.96420  0.48210  0.55600  Biso   1.000  C
  C131     1.0000 0.51790  0.03580  0.55600  Biso   1.000  C
  C132     1.0000 0.14877  0.85123  0.77733  Biso   1.000  C
  C133     1.0000 0.14877  0.29753  0.77733  Biso   1.000  C
  C134     1.0000 0.70247  0.85123  0.77733  Biso   1.000  C
  C135     1.0000 0.18457  0.81543  0.88933  Biso   1.000  C
  C136     1.0000 0.63087  0.81543  0.88933  Biso   1.000  C
  C137     1.0000 0.18457  0.36913  0.88933  Biso   1.000  C
  C138     1.0000 0.81543  0.18457  0.11067  Biso   1.000  C
  C139     1.0000 0.81543  0.63087  0.11067  Biso   1.000  C
  C140     1.0000 0.36913  0.18457  0.11067  Biso   1.000  C
  C141     1.0000 0.85123  0.14877  0.22267  Biso   1.000  C
  C142     1.0000 0.29753  0.14877  0.22267  Biso   1.000  C
  C143     1.0000 0.85123  0.70247  0.22267  Biso   1.000  C
  C144     1.0000 0.52380  0.04760  0.45300  Biso   1.000  C
  C145     1.0000 0.95240  0.47620  0.45300  Biso   1.000  C
  C146     1.0000 0.47620  0.52380  0.54700  Biso   1.000  C
  C147     1.0000 0.19047  0.80953  0.78633  Biso   1.000  C
  C148     1.0000 0.19047  0.38093  0.78633  Biso   1.000  C
  C149     1.0000 0.71427  0.85713  0.88033  Biso   1.000  C
  C150     1.0000 0.85713  0.14287  0.11967  Biso   1.000  C
  C151     1.0000 0.28573  0.14287  0.11967  Biso   1.000  C
  C152     1.0000 0.80953  0.61907  0.21367  Biso   1.000  C
  C153     1.0000 0.53320  0.06640  0.48210  Biso   1.000  C
  C154     1.0000 0.93360  0.46680  0.48210  Biso   1.000  C
  C155     1.0000 0.46680  0.53320  0.51790  Biso   1.000  C
  C156     1.0000 0.19987  0.80013  0.81543  Biso   1.000  C
  C157     1.0000 0.19987  0.39973  0.81543  Biso   1.000  C
  C158     1.0000 0.73307  0.86653  0.85123  Biso   1.000  C
  C159     1.0000 0.86653  0.13347  0.14877  Biso   1.000  C
  C160     1.0000 0.26693  0.13347  0.14877  Biso   1.000  C
  C161     1.0000 0.80013  0.60027  0.18457  Biso   1.000  C
  C162     1.0000 0.50100  0.49900  0.50240  Biso   1.000  C
  C163     1.0000 0.50100  0.00200  0.50240  Biso   1.000  C
  C164     1.0000 0.99800  0.49900  0.50240  Biso   1.000  C
  C165     1.0000 0.16767  0.83233  0.83573  Biso   1.000  C
  C166     1.0000 0.16767  0.33533  0.83573  Biso   1.000  C
  C167     1.0000 0.66467  0.83233  0.83573  Biso   1.000  C
  C168     1.0000 0.83433  0.16567  0.16907  Biso   1.000  C
  C169     1.0000 0.83433  0.66867  0.16907  Biso   1.000  C
  C170     1.0000 0.33133  0.16567  0.16907  Biso   1.000  C
  C171     1.0000 0.45940  0.91880  0.49350  Biso   1.000  C
  C172     1.0000 0.08120  0.54060  0.49350  Biso   1.000  C
  C173     1.0000 0.54060  0.45940  0.50650  Biso   1.000  C
  C174     1.0000 0.12607  0.87393  0.82683  Biso   1.000  C
  C175     1.0000 0.12607  0.25213  0.82683  Biso   1.000  C
  C176     1.0000 0.58547  0.79273  0.83983  Biso   1.000  C
  C177     1.0000 0.79273  0.20727  0.16017  Biso   1.000  C
  C178     1.0000 0.41453  0.20727  0.16017  Biso   1.000  C
  C179     1.0000 0.87393  0.74787  0.17317  Biso   1.000  C
  C180     1.0000 0.45050  0.90100  0.46430  Biso   1.000  C
  C181     1.0000 0.09900  0.54950  0.46430  Biso   1.000  C
  C182     1.0000 0.54950  0.45050  0.53570  Biso   1.000  C
  C183     1.0000 0.11717  0.88283  0.79763  Biso   1.000  C
  C184     1.0000 0.11717  0.23433  0.79763  Biso   1.000  C
  C185     1.0000 0.56767  0.78383  0.86903  Biso   1.000  C
  C186     1.0000 0.78383  0.21617  0.13097  Biso   1.000  C
  C187     1.0000 0.43233  0.21617  0.13097  Biso   1.000  C
  C188     1.0000 0.88283  0.76567  0.20237  Biso   1.000  C
  C189     1.0000 0.46890  0.53110  0.41300  Biso   1.000  C
  C190     1.0000 0.46890  0.93780  0.41300  Biso   1.000  C
  C191     1.0000 0.06220  0.53110  0.41300  Biso   1.000  C
  C192     1.0000 0.53110  0.46890  0.58700  Biso   1.000  C
  C193     1.0000 0.93780  0.46890  0.58700  Biso   1.000  C
  C194     1.0000 0.53110  0.06220  0.58700  Biso   1.000  C
  C195     1.0000 0.13557  0.86443  0.74633  Biso   1.000  C
  C196     1.0000 0.13557  0.27113  0.74633  Biso   1.000  C
  C197     1.0000 0.72887  0.86443  0.74633  Biso   1.000  C
  C198     1.0000 0.19777  0.80223  0.92033  Biso   1.000  C
  C199     1.0000 0.60447  0.80223  0.92033  Biso   1.000  C
  C200     1.0000 0.19777  0.39553  0.92033  Biso   1.000  C
  C201     1.0000 0.80223  0.19777  0.07967  Biso   1.000  C
  C202     1.0000 0.80223  0.60447  0.07967  Biso   1.000  C
  C203     1.0000 0.39553  0.19777  0.07967  Biso   1.000  C
  C204     1.0000 0.86443  0.13557  0.25367  Biso   1.000  C
  C205     1.0000 0.27113  0.13557  0.25367  Biso   1.000  C
  C206     1.0000 0.86443  0.72887  0.25367  Biso   1.000  C
  C207     1.0000 0.40970  0.81940  0.45490  Biso   1.000  C
  C208     1.0000 0.18060  0.59030  0.45490  Biso   1.000  C
  C209     1.0000 0.59030  0.40970  0.54510  Biso   1.000  C
  C210     1.0000 0.07637  0.92363  0.78823  Biso   1.000  C
  C211     1.0000 0.07637  0.15273  0.78823  Biso   1.000  C
  C212     1.0000 0.48607  0.74303  0.87843  Biso   1.000  C
  C213     1.0000 0.74303  0.25697  0.12157  Biso   1.000  C
  C214     1.0000 0.51393  0.25697  0.12157  Biso   1.000  C
  C215     1.0000 0.92363  0.84727  0.21177  Biso   1.000  C
  H55      1.0000 0.40190  0.80380  0.43550  Biso   1.000  H
  H56      1.0000 0.19620  0.59810  0.43550  Biso   1.000  H
  H57      1.0000 0.59810  0.40190  0.56450  Biso   1.000  H
  H58      1.0000 0.06857  0.93143  0.76883  Biso   1.000  H
  H59      1.0000 0.06857  0.13713  0.76883  Biso   1.000  H
  H60      1.0000 0.47047  0.73523  0.89783  Biso   1.000  H
  H61      1.0000 0.73523  0.26477  0.10217  Biso   1.000  H
  H62      1.0000 0.52953  0.26477  0.10217  Biso   1.000  H
  H63      1.0000 0.93143  0.86287  0.23117  Biso   1.000  H
  C216     1.0000 0.37740  0.75480  0.47460  Biso   1.000  C
  C217     1.0000 0.24520  0.62260  0.47460  Biso   1.000  C
  C218     1.0000 0.62260  0.37740  0.52540  Biso   1.000  C
  C219     1.0000 0.04407  0.95593  0.80793  Biso   1.000  C
  C220     1.0000 0.04407  0.08813  0.80793  Biso   1.000  C
  C221     1.0000 0.42147  0.71073  0.85873  Biso   1.000  C
  C222     1.0000 0.71073  0.28927  0.14127  Biso   1.000  C
  C223     1.0000 0.57853  0.28927  0.14127  Biso   1.000  C
  C224     1.0000 0.95593  0.91187  0.19207  Biso   1.000  C
  H64      1.0000 0.34990  0.69980  0.46920  Biso   1.000  H
  H65      1.0000 0.30020  0.65010  0.46920  Biso   1.000  H
  H66      1.0000 0.65010  0.34990  0.53080  Biso   1.000  H
  H67      1.0000 0.01657  0.98343  0.80253  Biso   1.000  H
  H68      1.0000 0.01657  0.03313  0.80253  Biso   1.000  H
  H69      1.0000 0.36647  0.68323  0.86413  Biso   1.000  H
  H70      1.0000 0.68323  0.31677  0.13587  Biso   1.000  H
  H71      1.0000 0.63353  0.31677  0.13587  Biso   1.000  H
  H72      1.0000 0.98343  0.96687  0.19747  Biso   1.000  H
  C225     1.0000 0.38650  0.77300  0.50370  Biso   1.000  C
  C226     1.0000 0.22700  0.61350  0.50370  Biso   1.000  C
  C227     1.0000 0.61350  0.38650  0.49630  Biso   1.000  C
  C228     1.0000 0.05317  0.94683  0.83703  Biso   1.000  C
  C229     1.0000 0.05317  0.10633  0.83703  Biso   1.000  C
  C230     1.0000 0.43967  0.71983  0.82963  Biso   1.000  C
  C231     1.0000 0.71983  0.28017  0.17037  Biso   1.000  C
  C232     1.0000 0.56033  0.28017  0.17037  Biso   1.000  C
  C233     1.0000 0.94683  0.89367  0.16297  Biso   1.000  C
  H73      1.0000 0.36590  0.73180  0.51780  Biso   1.000  H
  H74      1.0000 0.26820  0.63410  0.51780  Biso   1.000  H
  H75      1.0000 0.63410  0.36590  0.48220  Biso   1.000  H
  H76      1.0000 0.73180  0.36590  0.48220  Biso   1.000  H
  H77      1.0000 0.63410  0.26820  0.48220  Biso   1.000  H
  H78      1.0000 0.03257  0.96743  0.85113  Biso   1.000  H
  H79      1.0000 0.03257  0.06513  0.85113  Biso   1.000  H
  H80      1.0000 0.93487  0.96743  0.85113  Biso   1.000  H
  H81      1.0000 0.30077  0.69923  0.81553  Biso   1.000  H
  H82      1.0000 0.39847  0.69923  0.81553  Biso   1.000  H
  H83      1.0000 0.30077  0.60153  0.81553  Biso   1.000  H
  H84      1.0000 0.69923  0.30077  0.18447  Biso   1.000  H
  H85      1.0000 0.69923  0.39847  0.18447  Biso   1.000  H
  H86      1.0000 0.60153  0.30077  0.18447  Biso   1.000  H
  H87      1.0000 0.06513  0.03257  0.14887  Biso   1.000  H
  H88      1.0000 0.96743  0.93487  0.14887  Biso   1.000  H
  C234     1.0000 0.42700  0.57300  0.51340  Biso   1.000  C
  C235     1.0000 0.42700  0.85400  0.51340  Biso   1.000  C
  C236     1.0000 0.14600  0.57300  0.51340  Biso   1.000  C
  C237     1.0000 0.57300  0.42700  0.48660  Biso   1.000  C
  C238     1.0000 0.85400  0.42700  0.48660  Biso   1.000  C
  C239     1.0000 0.57300  0.14600  0.48660  Biso   1.000  C
  C240     1.0000 0.09367  0.90633  0.84673  Biso   1.000  C
  C241     1.0000 0.09367  0.18733  0.84673  Biso   1.000  C
  C242     1.0000 0.81267  0.90633  0.84673  Biso   1.000  C
  C243     1.0000 0.23967  0.76033  0.81993  Biso   1.000  C
  C244     1.0000 0.52067  0.76033  0.81993  Biso   1.000  C
  C245     1.0000 0.23967  0.47933  0.81993  Biso   1.000  C
  C246     1.0000 0.76033  0.23967  0.18007  Biso   1.000  C
  C247     1.0000 0.76033  0.52067  0.18007  Biso   1.000  C
  C248     1.0000 0.47933  0.23967  0.18007  Biso   1.000  C
  C249     1.0000 0.90633  0.09367  0.15327  Biso   1.000  C
  C250     1.0000 0.18733  0.09367  0.15327  Biso   1.000  C
  C251     1.0000 0.90633  0.81267  0.15327  Biso   1.000  C
  H89      1.0000 0.43400  0.86800  0.53280  Biso   1.000  H
  H90      1.0000 0.13200  0.56600  0.53280  Biso   1.000  H
  H91      1.0000 0.56600  0.43400  0.46720  Biso   1.000  H
  H92      1.0000 0.10067  0.89933  0.86613  Biso   1.000  H
  H93      1.0000 0.10067  0.20133  0.86613  Biso   1.000  H
  H94      1.0000 0.53467  0.76733  0.80053  Biso   1.000  H
  H95      1.0000 0.76733  0.23267  0.19947  Biso   1.000  H
  H96      1.0000 0.46533  0.23267  0.19947  Biso   1.000  H
  H97      1.0000 0.89933  0.79867  0.13387  Biso   1.000  H
  C252     1.0000 0.55550  0.11100  0.43260  Biso   1.000  C
  C253     1.0000 0.88900  0.44450  0.43260  Biso   1.000  C
  C254     1.0000 0.44450  0.55550  0.56740  Biso   1.000  C
  C255     1.0000 0.22217  0.77783  0.76593  Biso   1.000  C
  C256     1.0000 0.22217  0.44433  0.76593  Biso   1.000  C
  C257     1.0000 0.77767  0.88883  0.90073  Biso   1.000  C
  C258     1.0000 0.88883  0.11117  0.09927  Biso   1.000  C
  C259     1.0000 0.22233  0.11117  0.09927  Biso   1.000  C
  C260     1.0000 0.77783  0.55567  0.23407  Biso   1.000  C
  H98      1.0000 0.54830  0.09660  0.41310  Biso   1.000  H
  H99      1.0000 0.90340  0.45170  0.41310  Biso   1.000  H
  H100     1.0000 0.45170  0.54830  0.58690  Biso   1.000  H
  H101     1.0000 0.21497  0.78503  0.74643  Biso   1.000  H
  H102     1.0000 0.21497  0.42993  0.74643  Biso   1.000  H
  H103     1.0000 0.76327  0.88163  0.92023  Biso   1.000  H
  H104     1.0000 0.88163  0.11837  0.07977  Biso   1.000  H
  H105     1.0000 0.23673  0.11837  0.07977  Biso   1.000  H
  H106     1.0000 0.78503  0.57007  0.25357  Biso   1.000  H
  C261     1.0000 0.59700  0.19400  0.44120  Biso   1.000  C
  C262     1.0000 0.80600  0.40300  0.44120  Biso   1.000  C
  C263     1.0000 0.40300  0.59700  0.55880  Biso   1.000  C
  C264     1.0000 0.26367  0.73633  0.77453  Biso   1.000  C
  C265     1.0000 0.26367  0.52733  0.77453  Biso   1.000  C
  C266     1.0000 0.86067  0.93033  0.89213  Biso   1.000  C
  C267     1.0000 0.93033  0.06967  0.10787  Biso   1.000  C
  C268     1.0000 0.13933  0.06967  0.10787  Biso   1.000  C
  C269     1.0000 0.73633  0.47267  0.22547  Biso   1.000  C
  H107     1.0000 0.61780  0.23560  0.42720  Biso   1.000  H
  H108     1.0000 0.76440  0.38220  0.42720  Biso   1.000  H
  H109     1.0000 0.38220  0.61780  0.57280  Biso   1.000  H
  H110     1.0000 0.28447  0.71553  0.76053  Biso   1.000  H
  H111     1.0000 0.28447  0.56893  0.76053  Biso   1.000  H
  H112     1.0000 0.90227  0.95113  0.90613  Biso   1.000  H
  H113     1.0000 0.95113  0.04887  0.09387  Biso   1.000  H
  H114     1.0000 0.09773  0.04887  0.09387  Biso   1.000  H
  H115     1.0000 0.71553  0.43107  0.23947  Biso   1.000  H
  C270     1.0000 0.60630  0.21260  0.47020  Biso   1.000  C
  C271     1.0000 0.78740  0.39370  0.47020  Biso   1.000  C
  C272     1.0000 0.39370  0.60630  0.52980  Biso   1.000  C
  C273     1.0000 0.27297  0.72703  0.80353  Biso   1.000  C
  C274     1.0000 0.27297  0.54593  0.80353  Biso   1.000  C
  C275     1.0000 0.87927  0.93963  0.86313  Biso   1.000  C
  C276     1.0000 0.93963  0.06037  0.13687  Biso   1.000  C
  C277     1.0000 0.12073  0.06037  0.13687  Biso   1.000  C
  C278     1.0000 0.72703  0.45407  0.19647  Biso   1.000  C
  H116     1.0000 0.58160  0.16320  0.51000  Biso   1.000  H
  H117     1.0000 0.83680  0.41840  0.51000  Biso   1.000  H
  H118     1.0000 0.41840  0.58160  0.49000  Biso   1.000  H
  H119     1.0000 0.24827  0.75173  0.84333  Biso   1.000  H
  H120     1.0000 0.24827  0.49653  0.84333  Biso   1.000  H
  H121     1.0000 0.82987  0.91493  0.82333  Biso   1.000  H
  H122     1.0000 0.91493  0.08507  0.17667  Biso   1.000  H
  H123     1.0000 0.17013  0.08507  0.17667  Biso   1.000  H
  H124     1.0000 0.75173  0.50347  0.15667  Biso   1.000  H
  C279     1.0000 0.51050  0.02100  0.53400  Biso   1.000  C
  C280     1.0000 0.97900  0.48950  0.53400  Biso   1.000  C
  C281     1.0000 0.48950  0.51050  0.46600  Biso   1.000  C
  C282     1.0000 0.17717  0.82283  0.86733  Biso   1.000  C
  C283     1.0000 0.17717  0.35433  0.86733  Biso   1.000  C
  C284     1.0000 0.68767  0.84383  0.79933  Biso   1.000  C
  C285     1.0000 0.84383  0.15617  0.20067  Biso   1.000  C
  C286     1.0000 0.31233  0.15617  0.20067  Biso   1.000  C
  C287     1.0000 0.82283  0.64567  0.13267  Biso   1.000  C
  H125     1.0000 0.37538  0.64165  0.51654  Biso   1.000  H
  C288     1.0000 0.04296  0.51665  0.44302  Biso   1.000  C
  H126     1.0000 0.96577  0.02434  0.14406  Biso   1.000  H
